<?xml version="1.0" encoding="UTF-8"?>

<!-- generated on 05/13/18 15:41:54 by SUMO netconvert Version 0.24.0
<?xml version="1.0" encoding="UTF-8"?>

<configuration xmlns:xsi="http://www.w3.org/2001/XMLSchema-instance" xsi:noNamespaceSchemaLocation="http://sumo.dlr.de/xsd/netconvertConfiguration.xsd">

    <input>
        <type-files value="F:\Tools\sumo-0.24.0/data/typemap/osmNetconvert.typ.xml"/>
        <osm-files value="target.osm"/>
    </input>

    <output>
        <output-file value="input_net.net.xml"/>
    </output>

    <projection>
        <proj.utm value="true"/>
    </projection>

    <processing>
        <no-internal-links value="true"/>
    </processing>

</configuration>
-->

<net version="0.13" xmlns:xsi="http://www.w3.org/2001/XMLSchema-instance" xsi:noNamespaceSchemaLocation="http://sumo.dlr.de/xsd/net_file.xsd">

    <location netOffset="-742620.63,-2547751.91" convBoundary="0.00,0.00,5047.83,10513.70" origBoundary="113.368312,23.019775,113.416565,23.115185" projParameter="+proj=utm +zone=49 +ellps=WGS84 +datum=WGS84 +units=m +no_defs"/>

    <type id="highway.bridleway" priority="1" numLanes="1" speed="2.78" allow="pedestrian" oneway="1" width="2.00"/>
    <type id="highway.bus_guideway" priority="1" numLanes="1" speed="8.33" allow="bus" oneway="1"/>
    <type id="highway.cycleway" priority="1" numLanes="1" speed="5.56" allow="bicycle" oneway="0" width="1.00"/>
    <type id="highway.footway" priority="1" numLanes="1" speed="8.33" allow="pedestrian" oneway="1" width="2.00"/>
    <type id="highway.ford" priority="1" numLanes="1" speed="2.78" allow="army" oneway="0"/>
    <type id="highway.living_street" priority="3" numLanes="1" speed="2.78" disallow="tram rail_urban rail rail_electric ship" oneway="0"/>
    <type id="highway.motorway" priority="13" numLanes="2" speed="44.44" allow="private emergency authority army vip passenger hov taxi bus coach delivery truck trailer motorcycle evehicle custom1 custom2" oneway="1"/>
    <type id="highway.motorway_link" priority="12" numLanes="1" speed="22.22" allow="private emergency authority army vip passenger hov taxi bus coach delivery truck trailer motorcycle evehicle custom1 custom2" oneway="1"/>
    <type id="highway.path" priority="1" numLanes="1" speed="2.78" allow="bicycle pedestrian" oneway="1" width="2.00"/>
    <type id="highway.pedestrian" priority="1" numLanes="1" speed="8.33" allow="pedestrian" oneway="1" width="2.00"/>
    <type id="highway.primary" priority="9" numLanes="2" speed="27.78" disallow="tram rail_urban rail rail_electric ship" oneway="0"/>
    <type id="highway.primary_link" priority="8" numLanes="1" speed="22.22" disallow="tram rail_urban rail rail_electric ship" oneway="0"/>
    <type id="highway.raceway" priority="14" numLanes="2" speed="83.33" allow="vip" oneway="0"/>
    <type id="highway.residential" priority="4" numLanes="1" speed="13.89" disallow="tram rail_urban rail rail_electric ship" oneway="0"/>
    <type id="highway.secondary" priority="7" numLanes="2" speed="27.78" disallow="tram rail_urban rail rail_electric ship" oneway="0"/>
    <type id="highway.secondary_link" priority="6" numLanes="1" speed="22.22" disallow="tram rail_urban rail rail_electric ship" oneway="0"/>
    <type id="highway.service" priority="2" numLanes="1" speed="5.56" allow="delivery bicycle pedestrian" oneway="0"/>
    <type id="highway.services" priority="1" numLanes="1" speed="8.33" disallow="tram rail_urban rail rail_electric ship" oneway="0"/>
    <type id="highway.stairs" priority="1" numLanes="1" speed="1.39" allow="pedestrian" oneway="1" width="2.00"/>
    <type id="highway.step" priority="1" numLanes="1" speed="1.39" allow="pedestrian" oneway="1" width="2.00"/>
    <type id="highway.steps" priority="1" numLanes="1" speed="1.39" allow="pedestrian" oneway="1" width="2.00"/>
    <type id="highway.tertiary" priority="6" numLanes="1" speed="22.22" disallow="tram rail_urban rail rail_electric ship" oneway="0"/>
    <type id="highway.tertiary_link" priority="5" numLanes="1" speed="22.22" disallow="tram rail_urban rail rail_electric ship" oneway="0"/>
    <type id="highway.track" priority="1" numLanes="1" speed="5.56" disallow="tram rail_urban rail rail_electric ship" oneway="0"/>
    <type id="highway.trunk" priority="11" numLanes="2" speed="27.78" disallow="tram rail_urban rail rail_electric bicycle pedestrian ship" oneway="0"/>
    <type id="highway.trunk_link" priority="10" numLanes="1" speed="22.22" disallow="tram rail_urban rail rail_electric bicycle pedestrian ship" oneway="0"/>
    <type id="highway.unclassified" priority="5" numLanes="1" speed="13.89" disallow="tram rail_urban rail rail_electric ship" oneway="0"/>
    <type id="highway.unsurfaced" priority="1" numLanes="1" speed="8.33" disallow="tram rail_urban rail rail_electric ship" oneway="0"/>
    <type id="railway.light_rail" priority="15" numLanes="1" speed="27.78" allow="rail_urban" oneway="1"/>
    <type id="railway.preserved" priority="15" numLanes="1" speed="27.78" allow="rail" oneway="1"/>
    <type id="railway.rail" priority="15" numLanes="1" speed="83.33" allow="rail rail_electric" oneway="1"/>
    <type id="railway.subway" priority="15" numLanes="1" speed="27.78" allow="rail_urban" oneway="1"/>
    <type id="railway.tram" priority="15" numLanes="1" speed="13.89" allow="tram" oneway="1"/>

    <edge id="-102#0" from="1872" to="1361" priority="2" type="highway.service" shape="1846.99,4530.01 1833.51,4526.86 1819.78,4529.45 1808.32,4537.37 1801.09,4549.26">
        <lane id="-102#0_0" index="0" allow="delivery bicycle pedestrian" speed="5.56" length="55.67" shape="1841.85,4530.50 1833.48,4528.54 1820.43,4531.00 1809.54,4538.53 1805.20,4545.67"/>
    </edge>
    <edge id="-102#1" from="1878" to="1872" priority="2" type="highway.service" shape="1866.04,4564.07 1864.78,4550.36 1858.06,4538.31 1846.99,4530.01">
        <lane id="-102#1_0" index="0" allow="delivery bicycle pedestrian" speed="5.56" length="41.40" shape="1864.01,4560.05 1863.17,4550.86 1856.78,4539.42 1848.82,4533.44"/>
    </edge>
    <edge id="-102#2" from="1361" to="1878" priority="2" type="highway.service" shape="1801.09,4549.26 1799.25,4559.69 1800.79,4570.16 1805.55,4579.64 1813.07,4587.14 1825.72,4592.75 1829.18,4592.76 1839.57,4592.80 1852.26,4587.28 1861.61,4577.12 1866.04,4564.07">
        <lane id="-102#2_0" index="0" allow="delivery bicycle pedestrian" speed="5.56" length="111.52" shape="1802.12,4552.92 1800.92,4559.71 1802.38,4569.66 1806.91,4578.66 1814.02,4585.76 1826.07,4591.10 1829.18,4591.11 1839.23,4591.15 1851.28,4585.91 1860.16,4576.26 1863.17,4567.40"/>
    </edge>
    <edge id="-103#0" from="1868" to="1870" priority="2" type="highway.service">
        <lane id="-103#0_0" index="0" allow="delivery bicycle pedestrian" speed="5.56" length="51.42" shape="1945.42,4506.80 1991.83,4511.14"/>
    </edge>
    <edge id="-103#1" from="1867" to="1868" priority="2" type="highway.service">
        <lane id="-103#1_0" index="0" allow="delivery bicycle pedestrian" speed="5.56" length="88.13" shape="1858.01,4497.57 1935.91,4505.85"/>
    </edge>
    <edge id="-104#0" from="1335" to="1334" priority="4" type="highway.residential">
        <lane id="-104#0_0" index="0" disallow="tram rail_urban rail rail_electric ship" speed="13.89" length="60.80" shape="2573.67,3766.96 2531.39,3738.80"/>
    </edge>
    <edge id="-104#1" from="4724" to="1335" priority="4" type="highway.residential">
        <lane id="-104#1_0" index="0" disallow="tram rail_urban rail rail_electric ship" speed="13.89" length="77.52" shape="2637.00,3812.40 2583.64,3773.88"/>
    </edge>
    <edge id="-105#0" from="1879" to="1890" priority="2" type="highway.service" shape="1933.50,4570.50 1927.97,4626.08 1922.68,4679.10 1911.20,4677.92 1895.95,4676.38 1821.12,4668.76">
        <lane id="-105#0_0" index="0" allow="delivery bicycle pedestrian" speed="5.56" length="211.22" shape="1934.67,4575.41 1929.61,4626.24 1924.16,4680.90 1911.03,4679.56 1895.78,4678.02 1820.95,4670.40"/>
    </edge>
    <edge id="-105#1" from="1868" to="1879" priority="2" type="highway.service">
        <lane id="-105#1_0" index="0" allow="delivery bicycle pedestrian" speed="5.56" length="62.90" shape="1941.59,4512.91 1935.67,4565.91"/>
    </edge>
    <edge id="-105#2" from="1866" to="1868" priority="2" type="highway.service">
        <lane id="-105#2_0" index="0" allow="delivery bicycle pedestrian" speed="5.56" length="33.85" shape="1945.87,4474.53 1942.65,4503.40"/>
    </edge>
    <edge id="-116#0" from="2002" to="1964" priority="2" type="highway.service" shape="2974.85,4369.47 3004.92,4387.99 3018.51,4405.94">
        <lane id="-116#0_0" index="0" allow="delivery bicycle pedestrian" speed="5.56" length="57.83" shape="2980.79,4371.19 3006.04,4386.75 3016.87,4401.04"/>
    </edge>
    <edge id="-116#1" from="1258" to="2002" priority="2" type="highway.service" shape="2946.77,4271.57 2943.34,4310.32 2956.82,4348.84 2974.85,4369.47">
        <lane id="-116#1_0" index="0" allow="delivery bicycle pedestrian" speed="5.56" length="107.11" shape="2948.08,4275.58 2945.01,4310.11 2958.27,4348.00 2975.43,4367.62"/>
    </edge>
    <edge id="-116#2" from="2024" to="1258" priority="2" type="highway.service" shape="2991.16,4114.58 2984.23,4143.21 2984.14,4188.90 2971.01,4228.90 2946.77,4271.57">
        <lane id="-116#2_0" index="0" allow="delivery bicycle pedestrian" speed="5.56" length="166.32" shape="2991.54,4120.04 2985.88,4143.41 2985.79,4189.16 2972.53,4229.58 2950.38,4268.58"/>
    </edge>
    <edge id="-117#0" from="1263" to="1261" priority="2" type="highway.service" shape="2601.34,4069.26 2610.93,4073.88 2624.52,4102.62 2653.51,4135.56 2701.86,4157.97 2744.17,4159.10 2771.82,4157.12">
        <lane id="-117#0_0" index="0" allow="delivery bicycle pedestrian" speed="5.56" length="209.66" shape="2606.94,4070.13 2612.17,4072.65 2625.91,4101.71 2654.52,4134.21 2702.25,4156.33 2744.21,4157.45 2768.44,4155.71"/>
    </edge>
    <edge id="-117#1" from="1264" to="1263" priority="2" type="highway.service">
        <lane id="-117#1_0" index="0" allow="delivery bicycle pedestrian" speed="5.56" length="12.16" shape="2607.14,4064.20 2605.89,4065.88"/>
    </edge>
    <edge id="-117#2" from="1997" to="1264" priority="2" type="highway.service" shape="2494.63,4019.42 2535.13,4015.92 2570.93,4029.64 2608.57,4059.48">
        <lane id="-117#2_0" index="0" allow="delivery bicycle pedestrian" speed="5.56" length="127.02" shape="2496.91,4017.56 2535.36,4014.25 2571.76,4028.19 2605.75,4055.14"/>
    </edge>
    <edge id="-117#3" from="2039" to="1997" priority="2" type="highway.service" shape="2429.30,3944.39 2441.76,3963.91 2461.17,4002.45 2494.63,4019.42">
        <lane id="-117#3_0" index="0" allow="delivery bicycle pedestrian" speed="5.56" length="103.83" shape="2433.36,3947.69 2443.15,3963.02 2462.40,4001.22 2489.22,4014.82"/>
    </edge>
    <edge id="-128#0" from="2239" to="1218" priority="2" type="highway.service">
        <lane id="-128#0_0" index="0" allow="delivery bicycle pedestrian" speed="5.56" length="106.27" shape="3355.15,3296.20 3256.21,3294.39"/>
    </edge>
    <edge id="-128#1" from="1592" to="2239" priority="2" type="highway.service" shape="3636.40,3625.67 3614.98,3603.53 3582.40,3562.85 3559.07,3523.26 3546.32,3489.77 3540.24,3455.19 3540.88,3415.77 3547.27,3374.08 3557.54,3342.14 3579.90,3300.88 3485.16,3298.19 3409.76,3296.07 3357.70,3294.59">
        <lane id="-128#1_0" index="0" allow="delivery bicycle pedestrian" speed="5.56" length="584.20" shape="3635.09,3626.69 3613.79,3604.67 3581.12,3563.88 3557.65,3524.10 3544.73,3490.21 3538.58,3455.32 3539.23,3415.74 3545.64,3373.83 3556.01,3341.49 3577.17,3302.45 3485.11,3299.84 3409.71,3297.72 3360.18,3296.32"/>
    </edge>
    <edge id="-133" from="1106" to="1228" priority="2" type="highway.service">
        <lane id="-133_0" index="0" allow="delivery bicycle pedestrian" speed="5.56" length="153.17" shape="3180.49,2899.24 3260.95,3022.99"/>
    </edge>
    <edge id="-153#0" from="3938" to="2392" priority="2" type="highway.service">
        <lane id="-153#0_0" index="0" allow="delivery bicycle pedestrian" speed="5.56" length="7.44" shape="1277.95,3159.30 1277.83,3159.46"/>
    </edge>
    <edge id="-153#1" from="2432" to="3938" priority="2" type="highway.service">
        <lane id="-153#1_0" index="0" allow="delivery bicycle pedestrian" speed="5.56" length="52.55" shape="1311.13,3117.41 1282.57,3153.47"/>
    </edge>
    <edge id="-157#0" from="823" to="1331" priority="4" type="highway.residential">
        <lane id="-157#0_0" index="0" disallow="tram rail_urban rail rail_electric ship" speed="13.89" length="75.77" shape="2591.90,3615.03 2529.89,3633.23"/>
    </edge>
    <edge id="-157#1" from="4688" to="823" priority="4" type="highway.residential">
        <lane id="-157#1_0" index="0" disallow="tram rail_urban rail rail_electric ship" speed="13.89" length="120.88" shape="2708.62,3582.36 2601.52,3612.27"/>
    </edge>
    <edge id="-157#2" from="2481" to="4688" priority="4" type="highway.residential">
        <lane id="-157#2_0" index="0" disallow="tram rail_urban rail rail_electric ship" speed="13.89" length="7.57" shape="2718.03,3579.74 2717.84,3579.79"/>
    </edge>
    <edge id="-171" from="2743" to="2734" priority="2" type="highway.service" shape="2764.02,3575.23 2765.62,3555.60 2835.06,3554.21">
        <lane id="-171_0" index="0" allow="delivery bicycle pedestrian" speed="5.56" length="89.16" shape="2762.73,3570.76 2764.09,3553.98 2830.27,3552.66"/>
    </edge>
    <edge id="-172#0" from="3724" to="1287" priority="2" type="highway.service">
        <lane id="-172#0_0" index="0" allow="delivery bicycle pedestrian" speed="5.56" length="61.97" shape="2895.70,3827.98 2845.42,3807.20"/>
    </edge>
    <edge id="-172#1" from="3722" to="3724" priority="2" type="highway.service" shape="2961.54,3856.72 2946.45,3847.18 2899.93,3827.95">
        <lane id="-172#1_0" index="0" allow="delivery bicycle pedestrian" speed="5.56" length="68.19" shape="2956.71,3855.62 2945.57,3848.57 2900.69,3830.04"/>
    </edge>
    <edge id="-172#2" from="2848" to="3722" priority="2" type="highway.service" shape="3066.34,3877.22 3000.47,3874.77 2973.03,3863.99 2961.54,3856.72">
        <lane id="-172#2_0" index="0" allow="delivery bicycle pedestrian" speed="5.56" length="108.99" shape="3060.59,3878.66 3000.13,3876.41 2972.28,3865.47 2961.93,3858.92"/>
    </edge>
    <edge id="-19#0" from="1046" to="1041" priority="6" type="highway.tertiary">
        <lane id="-19#0_0" index="0" disallow="tram rail_urban rail rail_electric ship" speed="22.22" length="6.89" shape="2449.57,2782.01 2449.42,2781.88"/>
    </edge>
    <edge id="-19#1" from="1115" to="1046" priority="6" type="highway.tertiary" shape="2549.27,2877.71 2538.22,2867.99 2462.64,2792.75 2452.16,2782.08">
        <lane id="-19#1_0" index="0" disallow="tram rail_urban rail rail_electric ship" speed="22.22" length="136.32" shape="2544.56,2875.76 2537.13,2869.23 2461.48,2793.92 2454.38,2786.69"/>
    </edge>
    <edge id="-19#2" from="1089" to="1115" priority="6" type="highway.tertiary" shape="2649.11,2973.57 2637.87,2963.42 2560.37,2888.15 2549.27,2877.71">
        <lane id="-19#2_0" index="0" disallow="tram rail_urban rail rail_electric ship" speed="22.22" length="138.42" shape="2644.39,2971.53 2636.77,2964.65 2559.22,2889.34 2551.62,2882.19"/>
    </edge>
    <edge id="-19#3" from="1188" to="1089" priority="6" type="highway.tertiary">
        <lane id="-19#3_0" index="0" disallow="tram rail_urban rail rail_electric ship" speed="22.22" length="38.71" shape="2672.47,2998.22 2651.41,2978.06"/>
    </edge>
    <edge id="-19#4" from="978" to="1188" priority="6" type="highway.tertiary" shape="2777.74,3097.65 2767.30,3087.77 2688.78,3012.11 2677.06,3000.34">
        <lane id="-19#4_0" index="0" disallow="tram rail_urban rail rail_electric ship" speed="22.22" length="140.02" shape="2773.12,3095.55 2766.17,3088.97 2687.63,3013.30 2679.28,3004.90"/>
    </edge>
    <edge id="-19#5" from="1181" to="978" priority="6" type="highway.tertiary" shape="2880.25,3196.32 2866.05,3182.48 2788.88,3108.20 2777.74,3097.65">
        <lane id="-19#5_0" index="0" disallow="tram rail_urban rail rail_electric ship" speed="22.22" length="142.28" shape="2875.61,3194.11 2864.90,3183.66 2787.73,3109.39 2780.02,3102.08"/>
    </edge>
    <edge id="-20#0" from="1115" to="937" priority="6" type="highway.tertiary" shape="2549.27,2877.71 2559.34,2866.81 2647.46,2775.81 2663.96,2759.65">
        <lane id="-20#0_0" index="0" disallow="tram rail_urban rail rail_electric ship" speed="22.22" length="164.61" shape="2551.26,2873.12 2558.13,2865.69 2646.27,2774.66 2662.81,2758.47"/>
    </edge>
    <edge id="-20#1" from="1123" to="1115" priority="6" type="highway.tertiary" shape="2357.56,3081.56 2371.08,3065.44 2455.54,2974.77 2539.46,2888.35 2549.27,2877.71">
        <lane id="-20#1_0" index="0" disallow="tram rail_urban rail rail_electric ship" speed="22.22" length="279.88" shape="2359.41,3076.78 2369.82,3064.37 2454.34,2973.64 2538.27,2887.20 2544.79,2880.14"/>
    </edge>
    <edge id="-20#2" from="4807" to="1123" priority="6" type="highway.tertiary">
        <lane id="-20#2_0" index="0" disallow="tram rail_urban rail rail_electric ship" speed="22.22" length="9.21" shape="2353.44,3085.01 2353.55,3084.84"/>
    </edge>
    <edge id="-22#0" from="2024" to="491" priority="6" type="highway.tertiary" shape="2991.16,4114.58 3002.77,4119.10 3196.33,4194.09 3218.37,4202.20">
        <lane id="-22#0_0" index="0" disallow="tram rail_urban rail rail_electric ship" speed="22.22" length="243.52" shape="2996.62,4114.94 3003.37,4117.57 3196.92,4192.55 3214.33,4198.96"/>
    </edge>
    <edge id="-22#1" from="1186" to="2024" priority="6" type="highway.tertiary" shape="2551.58,3880.20 2555.71,3885.19 2564.55,3892.62 2718.90,3988.94 2776.13,4020.84 2791.67,4029.51 2864.79,4064.89 2979.28,4109.96 2991.16,4114.58">
        <lane id="-22#1_0" index="0" disallow="tram rail_urban rail rail_electric ship" speed="22.22" length="500.29" shape="2556.33,3883.34 2556.89,3884.02 2565.61,3891.36 2719.78,3987.54 2776.94,4019.40 2792.47,4028.07 2865.51,4063.40 2979.88,4108.43 2987.71,4111.47"/>
    </edge>
    <edge id="-22#2" from="4666" to="1186" priority="6" type="highway.tertiary">
        <lane id="-22#2_0" index="0" disallow="tram rail_urban rail rail_electric ship" speed="22.22" length="7.91" shape="2550.42,3875.16 2550.53,3875.33"/>
    </edge>
    <edge id="-23" from="978" to="475" priority="4" type="highway.residential" shape="2777.74,3097.65 2786.17,3088.47 2875.94,2997.78 2893.85,2981.57">
        <lane id="-23_0" index="0" disallow="tram rail_urban rail rail_electric ship" speed="13.89" length="164.22" shape="2779.77,3093.00 2784.96,3087.35 2874.77,2996.62 2888.86,2983.86"/>
    </edge>
    <edge id="-235" from="1267" to="3228" priority="2" type="highway.service" shape="2801.59,4102.82 2820.79,4108.94 2849.51,4119.85 2863.43,4136.88 2864.23,4148.03 2854.13,4169.73 2853.40,4183.33 2865.50,4195.96 2905.07,4213.63 2905.75,4227.16 2894.34,4249.53">
        <lane id="-235_0" index="0" allow="delivery bicycle pedestrian" speed="5.56" length="221.09" shape="2806.07,4102.52 2821.29,4107.37 2850.51,4118.46 2865.04,4136.25 2865.91,4148.34 2855.76,4170.13 2855.09,4182.71 2866.47,4194.59 2906.67,4212.54 2907.42,4227.52 2898.08,4245.83"/>
    </edge>
    <edge id="-25#0" from="1193" to="915" priority="4" type="highway.residential" shape="1006.18,3730.88 988.12,3737.81 945.15,3748.38 879.44,3750.02">
        <lane id="-25#0_0" index="0" disallow="tram rail_urban rail rail_electric ship" speed="13.89" length="129.33" shape="1003.30,3733.75 988.72,3739.35 945.37,3750.02 879.48,3751.67"/>
    </edge>
    <edge id="-25#1" from="1197" to="1193" priority="4" type="highway.residential" shape="1385.64,3731.13 1334.99,3706.00 1280.33,3687.37 1228.69,3678.23 1182.69,3674.18 1135.61,3680.78 1088.74,3694.18 1048.80,3712.37 1006.18,3730.88">
        <lane id="-25#1_0" index="0" disallow="tram rail_urban rail rail_electric ship" speed="13.89" length="399.55" shape="1380.65,3730.50 1334.25,3707.48 1279.80,3688.93 1228.41,3679.86 1182.74,3675.84 1135.84,3682.42 1089.19,3695.77 1049.49,3713.87 1012.78,3729.81"/>
    </edge>
    <edge id="-26#0" from="3812" to="1193" priority="2" type="highway.service" shape="1177.43,3602.23 1006.88,3597.77 1006.18,3730.88">
        <lane id="-26#0_0" index="0" allow="delivery bicycle pedestrian" speed="5.56" length="303.72" shape="1172.62,3603.76 1008.52,3599.46 1007.86,3724.40"/>
    </edge>
    <edge id="-26#1" from="1202" to="3812" priority="2" type="highway.service" shape="1340.71,3605.28 1276.46,3604.85 1177.43,3602.23">
        <lane id="-26#1_0" index="0" allow="delivery bicycle pedestrian" speed="5.56" length="163.32" shape="1340.70,3606.93 1276.45,3606.50 1182.13,3604.01"/>
    </edge>
    <edge id="-27#0" from="1208" to="553" priority="2" type="highway.service">
        <lane id="-27#0_0" index="0" allow="delivery bicycle pedestrian" speed="5.56" length="100.39" shape="1159.12,3953.93 1160.43,3863.55"/>
    </edge>
    <edge id="-27#1" from="1206" to="1208" priority="2" type="highway.service" shape="1104.05,4003.10 1160.02,4003.70 1160.71,3958.75">
        <lane id="-27#1_0" index="0" allow="delivery bicycle pedestrian" speed="5.56" length="100.93" shape="1104.07,4001.45 1158.40,4002.03 1158.98,3963.43"/>
    </edge>
    <edge id="-274" from="3650" to="3640" priority="2" type="highway.service" shape="2193.27,2996.11 2104.88,2996.88 2091.83,2993.22 2073.74,2978.65 2061.12,2962.69 2052.54,2957.87 2031.02,2956.78 1913.71,2954.63">
        <lane id="-274_0" index="0" allow="delivery bicycle pedestrian" speed="5.56" length="294.24" shape="2188.42,2997.80 2104.66,2998.53 2091.05,2994.72 2072.56,2979.82 2060.03,2963.97 2052.07,2959.49 2030.94,2958.43 1913.68,2956.28"/>
    </edge>
    <edge id="-277#0" from="1100" to="3666" priority="4" type="highway.residential" shape="2982.17,3085.87 2993.84,3071.75 3064.22,2996.15">
        <lane id="-277#0_0" index="0" disallow="tram rail_urban rail rail_electric ship" speed="13.89" length="121.60" shape="2984.87,3080.01 2992.56,3070.70 3063.01,2995.03"/>
    </edge>
    <edge id="-277#1" from="1088" to="1100" priority="4" type="highway.residential">
        <lane id="-277#1_0" index="0" disallow="tram rail_urban rail rail_electric ship" speed="13.89" length="20.33" shape="2972.15,3095.85 2976.74,3090.07"/>
    </edge>
    <edge id="-277#2" from="1101" to="1088" priority="4" type="highway.residential" shape="2890.05,3185.55 2955.80,3117.44 2969.54,3101.80">
        <lane id="-277#2_0" index="0" disallow="tram rail_urban rail rail_electric ship" speed="13.89" length="115.48" shape="2891.07,3182.12 2954.61,3116.29 2964.25,3105.32"/>
    </edge>
    <edge id="-277#3" from="1181" to="1101" priority="4" type="highway.residential">
        <lane id="-277#3_0" index="0" disallow="tram rail_urban rail rail_electric ship" speed="13.89" length="14.57" shape="2882.30,3191.61 2887.51,3185.89"/>
    </edge>
    <edge id="-277#4" from="1271" to="1181" priority="4" type="highway.residential" shape="2715.73,3368.09 2802.77,3275.72 2819.27,3258.76 2869.04,3208.71 2880.25,3196.32">
        <lane id="-277#4_0" index="0" disallow="tram rail_urban rail rail_electric ship" speed="13.89" length="237.87" shape="2718.06,3363.20 2801.57,3274.59 2818.09,3257.61 2867.87,3207.55 2875.92,3198.65"/>
    </edge>
    <edge id="-277#5" from="1044" to="1271" priority="4" type="highway.residential" shape="2660.42,3427.21 2670.68,3415.22 2715.73,3368.09">
        <lane id="-277#5_0" index="0" disallow="tram rail_urban rail rail_electric ship" speed="13.89" length="80.98" shape="2663.30,3421.31 2669.43,3414.14 2711.52,3370.11"/>
    </edge>
    <edge id="-277#6" from="4696" to="1044" priority="4" type="highway.residential">
        <lane id="-277#6_0" index="0" disallow="tram rail_urban rail rail_electric ship" speed="13.89" length="9.73" shape="2655.18,3428.89 2655.34,3428.78"/>
    </edge>
    <edge id="-279" from="4818" to="681" priority="6" type="highway.tertiary" shape="1682.77,3502.14 1691.48,3509.52 1787.90,3591.69">
        <lane id="-279_0" index="0" disallow="tram rail_urban rail rail_electric ship" speed="22.22" length="138.10" shape="1688.14,3504.53 1692.54,3508.26 1784.94,3587.00"/>
    </edge>
    <edge id="-28" from="1208" to="1207" priority="2" type="highway.service">
        <lane id="-28_0" index="0" allow="delivery bicycle pedestrian" speed="5.56" length="55.71" shape="1155.87,3960.26 1104.97,3958.84"/>
    </edge>
    <edge id="-29#0" from="2251" to="1592" priority="2" type="highway.service" shape="3277.73,3652.57 3299.89,3664.18 3350.45,3673.16 3388.05,3685.31 3423.38,3710.68 3451.08,3754.55 3496.86,3773.75 3539.25,3773.65 3620.86,3787.65 3642.85,3788.73 3665.37,3786.94 3695.57,3752.80 3699.03,3726.15 3691.53,3697.17 3641.96,3632.88 3636.40,3625.67">
        <lane id="-29#0_0" index="0" allow="delivery bicycle pedestrian" speed="5.56" length="625.73" shape="3278.10,3650.90 3300.43,3662.60 3350.74,3671.54 3388.80,3683.82 3424.60,3709.53 3452.20,3753.23 3497.19,3772.10 3539.25,3772.00 3621.14,3786.02 3642.93,3787.08 3664.58,3785.35 3694.00,3752.09 3697.35,3726.26 3690.01,3697.91 3640.66,3633.88 3635.21,3626.82"/>
    </edge>
    <edge id="-29#1" from="3747" to="2251" priority="2" type="highway.service" shape="3250.02,3583.30 3249.96,3588.50 3260.80,3620.18 3277.73,3652.57">
        <lane id="-29#1_0" index="0" allow="delivery bicycle pedestrian" speed="5.56" length="74.47" shape="3251.64,3585.83 3251.61,3588.24 3262.36,3619.65 3277.72,3648.98"/>
    </edge>
    <edge id="-29#10" from="1215" to="1228" priority="2" type="highway.service" shape="3591.54,3283.76 3615.63,3254.32 3642.96,3232.74 3711.19,3200.49 3723.59,3174.29 3722.32,3149.54 3699.34,3106.82 3673.27,3066.85 3658.55,3042.99 3655.89,3038.41 3627.21,2991.46 3623.57,2985.51 3616.14,2973.35 3536.87,2841.17 3514.22,2831.78 3495.85,2826.65 3477.82,2829.54 3468.06,2831.18 3460.87,2832.38 3444.98,2841.90 3394.80,2893.24 3333.72,2955.76 3262.59,3028.55">
        <lane id="-29#10_0" index="0" allow="delivery bicycle pedestrian" speed="5.56" length="920.56" shape="3590.26,3282.72 3614.47,3253.14 3642.09,3231.33 3709.96,3199.25 3721.92,3173.96 3720.69,3150.00 3697.89,3107.60 3671.89,3067.75 3657.14,3043.86 3654.47,3039.23 3625.80,2992.32 3622.17,2986.37 3614.74,2974.21 3535.74,2842.49 3513.59,2833.30 3495.75,2828.33 3478.09,2831.17 3468.33,2832.80 3461.45,2833.95 3446.02,2843.20 3395.98,2894.39 3334.90,2956.91 3267.66,3025.72"/>
    </edge>
    <edge id="-29#2" from="2732" to="3747" priority="2" type="highway.service">
        <lane id="-29#2_0" index="0" allow="delivery bicycle pedestrian" speed="5.56" length="23.87" shape="3251.87,3561.97 3251.69,3580.83"/>
    </edge>
    <edge id="-29#3" from="3742" to="2732" priority="2" type="highway.service" shape="3250.54,3522.73 3250.50,3533.84 3250.24,3559.42">
        <lane id="-29#3_0" index="0" allow="delivery bicycle pedestrian" speed="5.56" length="36.69" shape="3252.18,3525.28 3252.15,3533.85 3251.92,3556.96"/>
    </edge>
    <edge id="-29#4" from="3740" to="3742" priority="2" type="highway.service">
        <lane id="-29#4_0" index="0" allow="delivery bicycle pedestrian" speed="5.56" length="88.69" shape="3252.53,3436.54 3252.20,3520.28"/>
    </edge>
    <edge id="-29#5" from="3738" to="3740" priority="2" type="highway.service">
        <lane id="-29#5_0" index="0" allow="delivery bicycle pedestrian" speed="5.56" length="89.54" shape="3252.88,3347.05 3252.55,3431.54"/>
    </edge>
    <edge id="-29#6" from="2272" to="3738" priority="2" type="highway.service">
        <lane id="-29#6_0" index="0" allow="delivery bicycle pedestrian" speed="5.56" length="8.24" shape="3252.91,3338.46 3252.90,3342.05"/>
    </edge>
    <edge id="-29#7" from="1218" to="2272" priority="2" type="highway.service">
        <lane id="-29#7_0" index="0" allow="delivery bicycle pedestrian" speed="5.56" length="43.61" shape="3253.07,3297.45 3252.93,3333.45"/>
    </edge>
    <edge id="-29#8" from="2257" to="1218" priority="2" type="highway.service" shape="3193.44,3158.22 3198.02,3181.00 3226.91,3222.69 3246.89,3257.25 3251.44,3292.65">
        <lane id="-29#8_0" index="0" allow="delivery bicycle pedestrian" speed="5.56" length="149.57" shape="3195.95,3162.34 3199.57,3180.34 3228.26,3221.75 3248.48,3256.71 3252.53,3288.17"/>
    </edge>
    <edge id="-29#9" from="1228" to="2257" priority="2" type="highway.service" shape="3262.59,3028.55 3253.32,3037.58 3202.35,3093.69 3191.52,3125.01 3192.44,3153.19 3193.44,3158.22">
        <lane id="-29#9_0" index="0" allow="delivery bicycle pedestrian" speed="5.56" length="155.21" shape="3260.76,3032.64 3254.47,3038.76 3203.80,3094.55 3193.18,3125.26 3194.08,3153.13 3194.76,3156.42"/>
    </edge>
    <edge id="-3#0" from="553" to="566" priority="4" type="highway.residential" shape="1162.15,3858.37 1132.47,3861.83 1087.82,3861.24 1038.69,3854.71 1002.15,3847.91 991.78,3845.69 944.80,3843.33 893.93,3847.12 863.19,3851.39 845.44,3848.24">
        <lane id="-3#0_0" index="0" disallow="tram rail_urban rail rail_electric ship" speed="13.89" length="318.98" shape="1157.18,3860.61 1132.66,3863.47 1087.79,3862.89 1038.47,3856.35 1001.85,3849.53 991.44,3847.31 944.72,3844.98 894.05,3848.76 863.16,3853.06 845.16,3849.87"/>
    </edge>
    <edge id="-3#1" from="554" to="553" priority="4" type="highway.residential" shape="1357.30,3828.73 1327.19,3827.12 1291.35,3827.03 1255.90,3830.99 1213.96,3842.58 1162.15,3858.37">
        <lane id="-3#1_0" index="0" disallow="tram rail_urban rail rail_electric ship" speed="13.89" length="199.33" shape="1352.32,3830.11 1327.10,3828.77 1291.34,3828.68 1256.08,3832.63 1214.40,3844.17 1166.34,3858.82"/>
    </edge>
    <edge id="-3#2" from="4334" to="554" priority="4" type="highway.residential">