<?xml version="1.0" encoding="UTF-8"?>

<!-- generated on 05/13/18 15:45:01 by SUMO duarouter Version 0.24.0
<?xml version="1.0" encoding="UTF-8"?>

<configuration xmlns:xsi="http://www.w3.org/2001/XMLSchema-instance" xsi:noNamespaceSchemaLocation="http://sumo.dlr.de/xsd/duarouterConfiguration.xsd">

    <input>
        <net-file value="input_net.net.xml"/>
        <additional-files value="type.add.xml"/>
        <trip-files value="trips.trips.xml"/>
    </input>

    <output>
        <output-file value="routes.rou.xml"/>
    </output>

    <time>
        <begin value="0"/>
        <end value="600"/>
    </time>

</configuration>
-->

<routes xmlns:xsi="http://www.w3.org/2001/XMLSchema-instance" xsi:noNamespaceSchemaLocation="http://sumo.dlr.de/xsd/routes_file.xsd">
    <vehicle id="0" depart="0.00" departLane="best">
        <route edges="343#1 377 353#0 353#1 353#2 353#3 1#0"/>
    </vehicle>
    <vType id="RSU" guiShape="bus" color="red"/>
    <vehicle id="400" type="RSU" depart="0.00" departPos="398.55" color="red">
        <route edges="25#1"/>
        <stop lane="25#1_0" endPos="398.55" until="599.00" parking="1"/>
    </vehicle>
    <vehicle id="401" type="RSU" depart="0.00" departPos="128.98" color="red">
        <route edges="-41#0"/>
        <stop lane="-41#0_0" endPos="128.98" until="599.00" parking="1"/>
    </vehicle>
    <vehicle id="402" type="RSU" depart="0.00" departPos="198.33" color="red">
        <route edges="-3#1"/>
        <stop lane="-3#1_0" endPos="198.33" until="599.00" parking="1"/>
    </vehicle>
    <vehicle id="403" type="RSU" depart="0.00" departPos="416.02" color="red">
        <route edges="33#0"/>
        <stop lane="33#0_0" endPos="416.02" until="599.00" parking="1"/>
    </vehicle>
    <vehicle id="404" type="RSU" depart="0.00" departPos="140.85" color="red">
        <route edges="8#8"/>
        <stop lane="8#8_0" endPos="140.85" until="599.00" parking="1"/>
    </vehicle>
    <vehicle id="405" type="RSU" depart="0.00" departPos="403.26" color="red">
        <route edges="320#0"/>
        <stop lane="320#0_0" endPos="403.26" until="599.00" parking="1"/>
    </vehicle>
    <vehicle id="406" type="RSU" depart="0.00" departPos="42.74" color="red">
        <route edges="-47#0"/>
        <stop lane="-47#0_0" endPos="42.74" until="599.00" parking="1"/>
    </vehicle>
    <vehicle id="407" type="RSU" depart="0.00" departPos="55.73" color="red">
        <route edges="36#2"/>
        <stop lane="36#2_0" endPos="55.73" until="599.00" parking="1"/>
    </vehicle>
    <vehicle id="408" type="RSU" depart="0.00" departPos="669.96" color="red">
        <route edges="324#0"/>
        <stop lane="324#0_0" endPos="669.96" until="599.00" parking="1"/>
    </vehicle>
    <vehicle id="409" type="RSU" depart="0.00" departPos="44.56" color="red">
        <route edges="-41#2"/>
        <stop lane="-41#2_0" endPos="44.56" until="599.00" parking="1"/>
    </vehicle>
    <vehicle id="410" type="RSU" depart="0.00" departPos="81.09" color="red">
        <route edges="344#2"/>
        <stop lane="344#2_0" endPos="81.09" until="599.00" parking="1"/>
    </vehicle>
    <vehicle id="411" type="RSU" depart="0.00" departPos="36.83" color="red">
        <route edges="404"/>
        <stop lane="404_0" endPos="36.83" until="599.00" parking="1"/>
    </vehicle>
    <vehicle id="412" type="RSU" depart="0.00" departPos="41.97" color="red">
        <route edges="45#6"/>
        <stop lane="45#6_0" endPos="41.97" until="599.00" parking="1"/>
    </vehicle>
    <vehicle id="413" type="RSU" depart="0.00" departPos="88.78" color="red">
        <route edges="43#2"/>
        <stop lane="43#2_0" endPos="88.78" until="599.00" parking="1"/>
    </vehicle>
    <vehicle id="414" type="RSU" depart="0.00" departPos="330.59" color="red">
        <route edges="338#1"/>
        <stop lane="338#1_0" endPos="330.59" until="599.00" parking="1"/>
    </vehicle>
    <vehicle id="415" type="RSU" depart="0.00" departPos="745.92" color="red">
        <route edges="1#2"/>
        <stop lane="1#2_0" endPos="745.92" until="599.00" parking="1"/>
    </vehicle>
    <vehicle id="416" type="RSU" depart="0.00" departPos="8.32" color="red">
        <route edges="415#0"/>
        <stop lane="415#0_0" endPos="8.32" until="599.00" parking="1"/>
    </vehicle>
    <vehicle id="417" type="RSU" depart="0.00" departPos="152.95" color="red">
        <route edges="348#0"/>
        <stop lane="348#0_0" endPos="152.95" until="599.00" parking="1"/>
    </vehicle>
    <vehicle id="418" type="RSU" depart="0.00" departPos="53.64" color="red">
        <route edges="36#0"/>
        <stop lane="36#0_0" endPos="53.64" until="599.00" parking="1"/>
    </vehicle>
    <vehicle id="419" type="RSU" depart="0.00" departPos="176.69" color="red">
        <route edges="8#3"/>
        <stop lane="8#3_0" endPos="176.69" until="599.00" parking="1"/>
    </vehicle>
    <vehicle id="420" type="RSU" depart="0.00" departPos="43.01" color="red">
        <route edges="322"/>
        <stop lane="322_0" endPos="43.01" until="599.00" parking="1"/>
    </vehicle>
    <vehicle id="421" type="RSU" depart="0.00" departPos="102.45" color="red">
        <route edges="-3#3"/>
        <stop lane="-3#3_0" endPos="102.45" until="599.00" parking="1"/>
    </vehicle>
    <vehicle id="422" type="RSU" depart="0.00" departPos="66.76" color="red">
        <route edges="-63#0"/>
        <stop lane="-63#0_0" endPos="66.76" until="599.00" parking="1"/>
    </vehicle>
    <vehicle id="423" type="RSU" depart="0.00" departPos="30.14" color="red">
        <route edges="-373"/>
        <stop lane="-373_0" endPos="30.14" until="599.00" parking="1"/>
    </vehicle>
    <vehicle id="424" type="RSU" depart="0.00" departPos="398.55" color="red">
        <route edges="-25#1"/>
        <stop lane="-25#1_0" endPos="398.55" until="599.00" parking="1"/>
    </vehicle>
    <vehicle id="425" type="RSU" depart="0.00" departPos="42.59" color="red">
        <route edges="415#1"/>
        <stop lane="415#1_0" endPos="42.59" until="599.00" parking="1"/>
    </vehicle>
    <vehicle id="426" type="RSU" depart="0.00" departPos="22.85" color="red">
        <route edges="-366#3"/>
        <stop lane="-366#3_0" endPos="22.85" until="599.00" parking="1"/>
    </vehicle>
    <vehicle id="427" type="RSU" depart="0.00" departPos="102.83" color="red">
        <route edges="117#3"/>
        <stop lane="117#3_0" endPos="102.83" until="599.00" parking="1"/>
    </vehicle>
    <vehicle id="428" type="RSU" depart="0.00" departPos="29.10" color="red">
        <route edges="426"/>
        <stop lane="426_0" endPos="29.10" until="599.00" parking="1"/>
    </vehicle>
    <vehicle id="429" type="RSU" depart="0.00" departPos="488.02" color="red">
        <route edges="407#0"/>
        <stop lane="407#0_0" endPos="488.02" until="599.00" parking="1"/>
    </vehicle>
    <vehicle id="430" type="RSU" depart="0.00" departPos="49.32" color="red">
        <route edges="337"/>
        <stop lane="337_0" endPos="49.32" until="599.00" parking="1"/>
    </vehicle>
    <vehicle id="431" type="RSU" depart="0.00" departPos="106.47" color="red">
        <route edges="50"/>
        <stop lane="50_0" endPos="106.47" until="599.00" parking="1"/>
    </vehicle>
    <vehicle id="432" type="RSU" depart="0.00" departPos="2.55" color="red">
        <route edges="46#7"/>
        <stop lane="46#7_0" endPos="2.55" until="599.00" parking="1"/>
    </vehicle>
    <vehicle id="433" type="RSU" depart="0.00" departPos="294.65" color="red">
        <route edges="334"/>
        <stop lane="334_0" endPos="294.65" until="599.00" parking="1"/>
    </vehicle>
    <vehicle id="434" type="RSU" depart="0.00" departPos="78.99" color="red">
        <route edges="343#1"/>
        <stop lane="343#1_0" endPos="78.99" until="599.00" parking="1"/>
    </vehicle>
    <vehicle id="435" type="RSU" depart="0.00" departPos="53.61" color="red">
        <route edges="-43#9"/>
        <stop lane="-43#9_0" endPos="53.61" until="599.00" parking="1"/>
    </vehicle>
    <vehicle id="436" type="RSU" depart="0.00" departPos="105.06" color="red">
        <route edges="353#2"/>
        <stop lane="353#2_0" endPos="105.06" until="599.00" parking="1"/>
    </vehicle>
    <vehicle id="437" type="RSU" depart="0.00" departPos="55.88" color="red">
        <route edges="37#0"/>
        <stop lane="37#0_0" endPos="55.88" until="599.00" parking="1"/>
    </vehicle>
    <vehicle id="438" type="RSU" depart="0.00" departPos="68.69" color="red">
        <route edges="368#0"/>
        <stop lane="368#0_0" endPos="68.69" until="599.00" parking="1"/>
    </vehicle>
    <vehicle id="439" type="RSU" depart="0.00" departPos="132.73" color="red">
        <route edges="-330#1"/>
        <stop lane="-330#1_0" endPos="132.73" until="599.00" parking="1"/>
    </vehicle>
    <vehicle id="440" type="RSU" depart="0.00" departPos="1057.64" color="red">
        <route edges="418#0"/>
        <stop lane="418#0_0" endPos="1057.64" until="599.00" parking="1"/>
    </vehicle>
    <vehicle id="441" type="RSU" depart="0.00" departPos="102.85" color="red">
        <route edges="-44#0"/>
        <stop lane="-44#0_0" endPos="102.85" until="599.00" parking="1"/>
    </vehicle>
    <vehicle id="442" type="RSU" depart="0.00" departPos="998.87" color="red">
        <route edges="335#1"/>
        <stop lane="335#1_0" endPos="998.87" until="599.00" parking="1"/>
    </vehicle>
    <vehicle id="443" type="RSU" depart="0.00" departPos="154.73" color="red">
        <route edges="353#0"/>
        <stop lane="353#0_0" endPos="154.73" until="599.00" parking="1"/>
    </vehicle>
    <vehicle id="444" type="RSU" depart="0.00" departPos="22.64" color="red">
        <route edges="24"/>
        <stop lane="24_0" endPos="22.64" until="599.00" parking="1"/>
    </vehicle>
    <vehicle id="445" type="RSU" depart="0.00" departPos="212.59" color="red">
        <route edges="420#1"/>
        <stop lane="420#1_0" endPos="212.59" until="599.00" parking="1"/>
    </vehicle>
    <vehicle id="446" type="RSU" depart="0.00" departPos="583.20" color="red">
        <route edges="-128#1"/>
        <stop lane="-128#1_0" endPos="583.20" until="599.00" parking="1"/>
    </vehicle>
    <vehicle id="447" type="RSU" depart="0.00" departPos="126.02" color="red">
        <route edges="117#2"/>
        <stop lane="117#2_0" endPos="126.02" until="599.00" parking="1"/>
    </vehicle>
    <vehicle id="448" type="RSU" depart="0.00" departPos="136.14" color="red">
        <route edges="382#0"/>
        <stop lane="382#0_0" endPos="136.14" until="599.00" parking="1"/>
    </vehicle>
    <vehicle id="449" type="RSU" depart="0.00" departPos="207.41" color="red">
        <route edges="356"/>
        <stop lane="356_0" endPos="207.41" until="599.00" parking="1"/>
    </vehicle>
    <vehicle id="450" type="RSU" depart="0.00" departPos="340.43" color="red">
        <route edges="-67#0"/>
        <stop lane="-67#0_0" endPos="340.43" until="599.00" parking="1"/>
    </vehicle>
    <vehicle id="451" type="RSU" depart="0.00" departPos="437.16" color="red">
        <route edges="414#1"/>
        <stop lane="414#1_0" endPos="437.16" until="599.00" parking="1"/>
    </vehicle>
    <vehicle id="452" type="RSU" depart="0.00" departPos="17.56" color="red">
        <route edges="411#2"/>
        <stop lane="411#2_0" endPos="17.56" until="599.00" parking="1"/>
    </vehicle>
    <vehicle id="453" type="RSU" depart="0.00" departPos="155.10" color="red">
        <route edges="37#1"/>
        <stop lane="37#1_0" endPos="155.10" until="599.00" parking="1"/>
    </vehicle>
    <vehicle id="454" type="RSU" depart="0.00" departPos="11.19" color="red">
        <route edges="45#4"/>
        <stop lane="45#4_0" endPos="11.19" until="599.00" parking="1"/>
    </vehicle>
    <vehicle id="455" type="RSU" depart="0.00" departPos="88.94" color="red">
        <route edges="354#1"/>
        <stop lane="354#1_0" endPos="88.94" until="599.00" parking="1"/>
    </vehicle>
    <vehicle id="456" type="RSU" depart="0.00" departPos="68.23" color="red">
        <route edges="8#6"/>
        <stop lane="8#6_0" endPos="68.23" until="599.00" parking="1"/>
    </vehicle>
    <vehicle id="457" type="RSU" depart="0.00" departPos="38.29" color="red">
        <route edges="350"/>
        <stop lane="350_0" endPos="38.29" until="599.00" parking="1"/>
    </vehicle>
    <vehicle id="458" type="RSU" depart="0.00" departPos="278.88" color="red">
        <route edges="20#1"/>
        <stop lane="20#1_0" endPos="278.88" until="599.00" parking="1"/>
    </vehicle>
    <vehicle id="459" type="RSU" depart="0.00" departPos="120.60" color="red">
        <route edges="277#0"/>
        <stop lane="277#0_0" endPos="120.60" until="599.00" parking="1"/>
    </vehicle>
    <vehicle id="460" type="RSU" depart="0.00" departPos="67.19" color="red">
        <route edges="-172#1"/>
        <stop lane="-172#1_0" endPos="67.19" until="599.00" parking="1"/>
    </vehicle>
    <vehicle id="461" type="RSU" depart="0.00" departPos="289.10" color="red">
        <route edges="1#1"/>
        <stop lane="1#1_0" endPos="289.10" until="599.00" parking="1"/>
    </vehicle>
    <vehicle id="462" type="RSU" depart="0.00" departPos="177.75" color="red">
        <route edges="341"/>
        <stop lane="341_0" endPos="177.75" until="599.00" parking="1"/>
    </vehicle>
    <vehicle id="463" type="RSU" depart="0.00" departPos="203.68" color="red">
        <route edges="320#1"/>
        <stop lane="320#1_0" endPos="203.68" until="599.00" parking="1"/>
    </vehicle>
    <vehicle id="464" type="RSU" depart="0.00" departPos="149.06" color="red">
        <route edges="-43#8"/>
        <stop lane="-43#8_0" endPos="149.06" until="599.00" parking="1"/>
    </vehicle>
    <vehicle id="465" type="RSU" depart="0.00" departPos="279.76" color="red">
        <route edges="354#7"/>
        <stop lane="354#7_0" endPos="279.76" until="599.00" parking="1"/>
    </vehicle>
    <vehicle id="466" type="RSU" depart="0.00" departPos="315.68" color="red">
        <route edges="377"/>
        <stop lane="377_0" endPos="315.68" until="599.00" parking="1"/>
    </vehicle>
    <vehicle id="467" type="RSU" depart="0.00" departPos="42.61" color="red">
        <route edges="-29#7"/>
        <stop lane="-29#7_0" endPos="42.61" until="599.00" parking="1"/>
    </vehicle>
    <vehicle id="468" type="RSU" depart="0.00" departPos="152.95" color="red">
        <route edges="348#1"/>
        <stop lane="348#1_0" endPos="152.95" until="599.00" parking="1"/>
    </vehicle>
    <vehicle id="469" type="RSU" depart="0.00" departPos="98.80" color="red">
        <route edges="43#5"/>
        <stop lane="43#5_0" endPos="98.80" until="599.00" parking="1"/>
    </vehicle>
    <vehicle id="470" type="RSU" depart="0.00" departPos="326.77" color="red">
        <route edges="375"/>
        <stop lane="375_0" endPos="326.77" until="599.00" parking="1"/>
    </vehicle>
    <vehicle id="471" type="RSU" depart="0.00" departPos="251.00" color="red">
        <route edges="70"/>
        <stop lane="70_0" endPos="251.00" until="599.00" parking="1"/>
    </vehicle>
    <vehicle id="472" type="RSU" depart="0.00" departPos="7.93" color="red">
        <route edges="338#0"/>
        <stop lane="338#0_0" endPos="7.93" until="599.00" parking="1"/>
    </vehicle>
    <vehicle id="473" type="RSU" depart="0.00" departPos="222.95" color="red">
        <route edges="-52#1"/>
        <stop lane="-52#1_0" endPos="222.95" until="599.00" parking="1"/>
    </vehicle>
    <vehicle id="474" type="RSU" depart="0.00" departPos="38.52" color="red">
        <route edges="-372#2"/>
        <stop lane="-372#2_0" endPos="38.52" until="599.00" parking="1"/>
    </vehicle>
    <vehicle id="475" type="RSU" depart="0.00" departPos="100.72" color="red">
        <route edges="415#6"/>
        <stop lane="415#6_0" endPos="100.72" until="599.00" parking="1"/>
    </vehicle>
    <vehicle id="476" type="RSU" depart="0.00" departPos="139.02" color="red">
        <route edges="-19#4"/>
        <stop lane="-19#4_0" endPos="139.02" until="599.00" parking="1"/>
    </vehicle>
    <vehicle id="477" type="RSU" depart="0.00" departPos="53.04" color="red">
        <route edges="388"/>
        <stop lane="388_0" endPos="53.04" until="599.00" parking="1"/>
    </vehicle>
    <vehicle id="478" type="RSU" depart="0.00" departPos="6.31" color="red">
        <route edges="-3#2"/>
        <stop lane="-3#2_0" endPos="6.31" until="599.00" parking="1"/>
    </vehicle>
    <vehicle id="479" type="RSU" depart="0.00" departPos="51.55" color="red">
        <route edges="-153#1"/>
        <stop lane="-153#1_0" endPos="51.55" until="599.00" parking="1"/>
    </vehicle>
    <vehicle id="480" type="RSU" depart="0.00" departPos="260.43" color="red">
        <route edges="381#1"/>
        <stop lane="381#1_0" endPos="260.43" until="599.00" parking="1"/>
    </vehicle>
    <vehicle id="481" type="RSU" depart="0.00" departPos="208.66" color="red">
        <route edges="117#0"/>
        <stop lane="117#0_0" endPos="208.66" until="599.00" parking="1"/>
    </vehicle>
    <vehicle id="482" type="RSU" depart="0.00" departPos="137.42" color="red">
        <route edges="-19#2"/>
        <stop lane="-19#2_0" endPos="137.42" until="599.00" parking="1"/>
    </vehicle>
    <vehicle id="483" type="RSU" depart="0.00" departPos="5.89" color="red">
        <route edges="-19#0"/>
        <stop lane="-19#0_0" endPos="5.89" until="599.00" parking="1"/>
    </vehicle>
    <vehicle id="484" type="RSU" depart="0.00" departPos="614.43" color="red">
        <route edges="407#1"/>
        <stop lane="407#1_0" endPos="614.43" until="599.00" parking="1"/>
    </vehicle>
    <vehicle id="485" type="RSU" depart="0.00" departPos="133.06" color="red">
        <route edges="-330#0"/>
        <stop lane="-330#0_0" endPos="133.06" until="599.00" parking="1"/>
    </vehicle>
    <vehicle id="486" type="RSU" depart="0.00" departPos="40.40" color="red">
        <route edges="-102#1"/>
        <stop lane="-102#1_0" endPos="40.40" until="599.00" parking="1"/>
    </vehicle>
    <vehicle id="487" type="RSU" depart="0.00" departPos="40.97" color="red">
        <route edges="36#1"/>
        <stop lane="36#1_0" endPos="40.97" until="599.00" parking="1"/>
    </vehicle>
    <vehicle id="488" type="RSU" depart="0.00" departPos="54.67" color="red">
        <route edges="-102#0"/>
        <stop lane="-102#0_0" endPos="54.67" until="599.00" parking="1"/>
    </vehicle>
    <vehicle id="489" type="RSU" depart="0.00" departPos="264.46" color="red">
        <route edges="345#0"/>
        <stop lane="345#0_0" endPos="264.46" until="599.00" parking="1"/>
    </vehicle>
    <vehicle id="490" type="RSU" depart="0.00" departPos="34.11" color="red">
        <route edges="352"/>
        <stop lane="352_0" endPos="34.11" until="599.00" parking="1"/>
    </vehicle>
    <vehicle id="491" type="RSU" depart="0.00" departPos="522.92" color="red">
        <route edges="416#1"/>
        <stop lane="416#1_0" endPos="522.92" until="599.00" parking="1"/>
    </vehicle>
    <vehicle id="492" type="RSU" depart="0.00" departPos="219.28" color="red">
        <route edges="332#1"/>
        <stop lane="332#1_0" endPos="219.28" until="599.00" parking="1"/>
    </vehicle>
    <vehicle id="493" type="RSU" depart="0.00" departPos="135.32" color="red">
        <route edges="-19#1"/>
        <stop lane="-19#1_0" endPos="135.32" until="599.00" parking="1"/>
    </vehicle>
    <vehicle id="494" type="RSU" depart="0.00" departPos="14.65" color="red">
        <route edges="-461"/>
        <stop lane="-461_0" endPos="14.65" until="599.00" parking="1"/>
    </vehicle>
    <vehicle id="495" type="RSU" depart="0.00" departPos="31.85" color="red">
        <route edges="409"/>
        <stop lane="409_0" endPos="31.85" until="599.00" parking="1"/>
    </vehicle>
    <vehicle id="496" type="RSU" depart="0.00" departPos="110.28" color="red">
        <route edges="364"/>
        <stop lane="364_0" endPos="110.28" until="599.00" parking="1"/>
    </vehicle>
    <vehicle id="497" type="RSU" depart="0.00" departPos="136.90" color="red">
        <route edges="354#3"/>
        <stop lane="354#3_0" endPos="136.90" until="599.00" parking="1"/>
    </vehicle>
    <vehicle id="498" type="RSU" depart="0.00" departPos="210.05" color="red">
        <route edges="-67#1"/>
        <stop lane="-67#1_0" endPos="210.05" until="599.00" parking="1"/>
    </vehicle>
    <vehicle id="499" type="RSU" depart="0.00" departPos="21.35" color="red">
        <route edges="369"/>
        <stop lane="369_0" endPos="21.35" until="599.00" parking="1"/>
    </vehicle>
    <vehicle id="500" type="RSU" depart="0.00" departPos="276.70" color="red">
        <route edges="349#1"/>
        <stop lane="349#1_0" endPos="276.70" until="599.00" parking="1"/>
    </vehicle>
    <vehicle id="501" type="RSU" depart="0.00" departPos="27.63" color="red">
        <route edges="410#0"/>
        <stop lane="410#0_0" endPos="27.63" until="599.00" parking="1"/>
    </vehicle>
    <vehicle id="502" type="RSU" depart="0.00" departPos="148.94" color="red">
        <route edges="382#1"/>
        <stop lane="382#1_0" endPos="148.94" until="599.00" parking="1"/>
    </vehicle>
    <vehicle id="503" type="RSU" depart="0.00" departPos="314.18" color="red">
        <route edges="338#2"/>
        <stop lane="338#2_0" endPos="314.18" until="599.00" parking="1"/>
    </vehicle>
    <vehicle id="504" type="RSU" depart="0.00" departPos="121.68" color="red">
        <route edges="354#5"/>
        <stop lane="354#5_0" endPos="121.68" until="599.00" parking="1"/>
    </vehicle>
    <vehicle id="505" type="RSU" depart="0.00" departPos="6.79" color="red">
        <route edges="-330#2"/>
        <stop lane="-330#2_0" endPos="6.79" until="599.00" parking="1"/>
    </vehicle>
    <vehicle id="506" type="RSU" depart="0.00" departPos="35.69" color="red">
        <route edges="-29#3"/>
        <stop lane="-29#3_0" endPos="35.69" until="599.00" parking="1"/>
    </vehicle>
    <vehicle id="507" type="RSU" depart="0.00" departPos="162.32" color="red">
        <route edges="-26#1"/>
        <stop lane="-26#1_0" endPos="162.32" until="599.00" parking="1"/>
    </vehicle>
    <vehicle id="508" type="RSU" depart="0.00" departPos="105.27" color="red">
        <route edges="-128#0"/>
        <stop lane="-128#0_0" endPos="105.27" until="599.00" parking="1"/>
    </vehicle>
    <vehicle id="509" type="RSU" depart="0.00" departPos="242.52" color="red">
        <route edges="22#0"/>
        <stop lane="22#0_0" endPos="242.52" until="599.00" parking="1"/>
    </vehicle>
    <vehicle id="510" type="RSU" depart="0.00" departPos="137.17" color="red">
        <route edges="380#2"/>
        <stop lane="380#2_0" endPos="137.17" until="599.00" parking="1"/>
    </vehicle>
    <vehicle id="511" type="RSU" depart="0.00" departPos="191.34" color="red">
        <route edges="414#0"/>
        <stop lane="414#0_0" endPos="191.34" until="599.00" parking="1"/>
    </vehicle>
    <vehicle id="512" type="RSU" depart="0.00" departPos="42.78" color="red">
        <route edges="399#1"/>
        <stop lane="399#1_0" endPos="42.78" until="599.00" parking="1"/>
    </vehicle>
    <vehicle id="513" type="RSU" depart="0.00" departPos="103.82" color="red">
        <route edges="43#1"/>
        <stop lane="43#1_0" endPos="103.82" until="599.00" parking="1"/>
    </vehicle>
    <vehicle id="514" type="RSU" depart="0.00" departPos="70.78" color="red">
        <route edges="-63#1"/>
        <stop lane="-63#1_0" endPos="70.78" until="599.00" parking="1"/>
    </vehicle>
    <vehicle id="515" type="RSU" depart="0.00" departPos="8.02" color="red">
        <route edges="354#6"/>
        <stop lane="354#6_0" endPos="8.02" until="599.00" parking="1"/>
    </vehicle>
    <vehicle id="516" type="RSU" depart="0.00" departPos="20.66" color="red">
        <route edges="434#0"/>
        <stop lane="434#0_0" endPos="20.66" until="599.00" parking="1"/>
    </vehicle>
    <vehicle id="517" type="RSU" depart="0.00" departPos="37.41" color="red">
        <route edges="331#0"/>
        <stop lane="331#0_0" endPos="37.41" until="599.00" parking="1"/>
    </vehicle>
    <vehicle id="518" type="RSU" depart="0.00" departPos="645.34" color="red">
        <route edges="396#0"/>
        <stop lane="396#0_0" endPos="645.34" until="599.00" parking="1"/>
    </vehicle>
    <vehicle id="519" type="RSU" depart="0.00" departPos="7.24" color="red">
        <route edges="-29#6"/>
        <stop lane="-29#6_0" endPos="7.24" until="599.00" parking="1"/>
    </vehicle>
    <vehicle id="520" type="RSU" depart="0.00" departPos="136.07" color="red">
        <route edges="378#1"/>
        <stop lane="378#1_0" endPos="136.07" until="599.00" parking="1"/>
    </vehicle>
    <vehicle id="521" type="RSU" depart="0.00" departPos="179.37" color="red">
        <route edges="-8#1"/>
        <stop lane="-8#1_0" endPos="179.37" until="599.00" parking="1"/>
    </vehicle>
    <vehicle id="522" type="RSU" depart="0.00" departPos="56.83" color="red">
        <route edges="-116#0"/>
        <stop lane="-116#0_0" endPos="56.83" until="599.00" parking="1"/>
    </vehicle>
    <vehicle id="523" type="RSU" depart="0.00" departPos="27.97" color="red">
        <route edges="46#6"/>
        <stop lane="46#6_0" endPos="27.97" until="599.00" parking="1"/>
    </vehicle>
    <vehicle id="524" type="RSU" depart="0.00" departPos="919.56" color="red">
        <route edges="-29#10"/>
        <stop lane="-29#10_0" endPos="919.56" until="599.00" parking="1"/>
    </vehicle>
    <vehicle id="525" type="RSU" depart="0.00" departPos="30.78" color="red">
        <route edges="-45#3"/>
        <stop lane="-45#3_0" endPos="30.78" until="599.00" parking="1"/>
    </vehicle>
    <vehicle id="526" type="RSU" depart="0.00" departPos="5.82" color="red">
        <route edges="-46#5"/>
        <stop lane="-46#5_0" endPos="5.82" until="599.00" parking="1"/>
    </vehicle>
    <vehicle id="527" type="RSU" depart="0.00" departPos="141.14" color="red">
        <route edges="415#5"/>
        <stop lane="415#5_0" endPos="141.14" until="599.00" parking="1"/>
    </vehicle>
    <vehicle id="528" type="RSU" depart="0.00" departPos="141.28" color="red">
        <route edges="-19#5"/>
        <stop lane="-19#5_0" endPos="141.28" until="599.00" parking="1"/>
    </vehicle>
    <vehicle id="529" type="RSU" depart="0.00" departPos="107.99" color="red">
        <route edges="-172#2"/>
        <stop lane="-172#2_0" endPos="107.99" until="599.00" parking="1"/>
    </vehicle>
    <vehicle id="530" type="RSU" depart="0.00" departPos="28.13" color="red">
        <route edges="43#4"/>
        <stop lane="43#4_0" endPos="28.13" until="599.00" parking="1"/>
    </vehicle>
    <vehicle id="531" type="RSU" depart="0.00" departPos="7.40" color="red">
        <route edges="374"/>
        <stop lane="374_0" endPos="7.40" until="599.00" parking="1"/>
    </vehicle>
    <vehicle id="532" type="RSU" depart="0.00" departPos="26.87" color="red">
        <route edges="340"/>
        <stop lane="340_0" endPos="26.87" until="599.00" parking="1"/>
    </vehicle>
    <vehicle id="533" type="RSU" depart="0.00" departPos="209.35" color="red">
        <route edges="351#10"/>
        <stop lane="351#10_0" endPos="209.35" until="599.00" parking="1"/>
    </vehicle>
    <vehicle id="534" type="RSU" depart="0.00" departPos="7.87" color="red">
        <route edges="414#2"/>
        <stop lane="414#2_0" endPos="7.87" until="599.00" parking="1"/>
    </vehicle>
    <vehicle id="535" type="RSU" depart="0.00" departPos="537.95" color="red">
        <route edges="381#0"/>
        <stop lane="381#0_0" endPos="537.95" until="599.00" parking="1"/>
    </vehicle>
    <vehicle id="536" type="RSU" depart="0.00" departPos="157.80" color="red">
        <route edges="397#3"/>
        <stop lane="397#3_0" endPos="157.80" until="599.00" parking="1"/>
    </vehicle>
    <vehicle id="537" type="RSU" depart="0.00" departPos="40.79" color="red">
        <route edges="391"/>
        <stop lane="391_0" endPos="40.79" until="599.00" parking="1"/>
    </vehicle>
    <vehicle id="538" type="RSU" depart="0.00" departPos="37.71" color="red">
        <route edges="-19#3"/>
        <stop lane="-19#3_0" endPos="37.71" until="599.00" parking="1"/>
    </vehicle>
    <vehicle id="539" type="RSU" depart="0.00" departPos="716.66" color="red">
        <route edges="2"/>
        <stop lane="2_0" endPos="716.66" until="599.00" parking="1"/>
    </vehicle>
    <vehicle id="540" type="RSU" depart="0.00" departPos="87.69" color="red">
        <route edges="-29#4"/>
        <stop lane="-29#4_0" endPos="87.69" until="599.00" parking="1"/>
    </vehicle>
    <vehicle id="541" type="RSU" depart="0.00" departPos="358.53" color="red">
        <route edges="56#1"/>
        <stop lane="56#1_0" endPos="358.53" until="599.00" parking="1"/>
    </vehicle>
    <vehicle id="542" type="RSU" depart="0.00" departPos="27.46" color="red">
        <route edges="-77#0"/>
        <stop lane="-77#0_0" endPos="27.46" until="599.00" parking="1"/>
    </vehicle>
    <vehicle id="543" type="RSU" depart="0.00" departPos="34.69" color="red">
        <route edges="418#1"/>
        <stop lane="418#1_0" endPos="34.69" until="599.00" parking="1"/>
    </vehicle>
    <vehicle id="544" type="RSU" depart="0.00" departPos="6.66" color="red">
        <route edges="-408#1"/>
        <stop lane="-408#1_0" endPos="6.66" until="599.00" parking="1"/>
    </vehicle>
    <vehicle id="545" type="RSU" depart="0.00" departPos="154.37" color="red">
        <route edges="-69#1"/>
        <stop lane="-69#1_0" endPos="154.37" until="599.00" parking="1"/>
    </vehicle>
    <vehicle id="546" type="RSU" depart="0.00" departPos="286.44" color="red">
        <route edges="7#2"/>
        <stop lane="7#2_0" endPos="286.44" until="599.00" parking="1"/>
    </vehicle>
    <vehicle id="547" type="RSU" depart="0.00" departPos="210.85" color="red">