<?xml version="1.0"?>
<!-- generated on 2018-05-13 15:44:05.244000 by $Id: randomTrips.py 18756 2015-08-31 19:16:33Z behrisch $
  options: -n input_net.net.xml -e 60 -p 0.15 <doubleminus>trip-attributes=departLane="best"
-->
<trips>
    <trip id="0" depart="0.00" from="343#1" to="1#0" departLane="best"/>
    <trip id="1" depart="0.15" from="29#6" to="29#6" departLane="best"/>
    <trip id="2" depart="0.30" from="399#1" to="116#1" departLane="best"/>
    <trip id="3" depart="0.45" from="-157#2" to="62" departLane="best"/>
    <trip id="4" depart="0.60" from="71" to="354#0" departLane="best"/>
    <trip id="5" depart="0.75" from="367" to="-44#2" departLane="best"/>
    <trip id="6" depart="0.90" from="41#2" to="351#0" departLane="best"/>
    <trip id="7" depart="1.05" from="323" to="-29#3" departLane="best"/>
    <trip id="8" depart="1.20" from="-366#4" to="368#0" departLane="best"/>
    <trip id="9" depart="1.35" from="-51#2" to="319" departLane="best"/>
    <trip id="10" depart="1.50" from="45#0" to="-277#3" departLane="best"/>
    <trip id="11" depart="1.65" from="369" to="-274" departLane="best"/>
    <trip id="12" depart="1.80" from="43#9" to="-277#2" departLane="best"/>
    <trip id="13" depart="1.95" from="332#1" to="433" departLane="best"/>
    <trip id="14" depart="2.10" from="420#1" to="-51#4" departLane="best"/>
    <trip id="15" depart="2.25" from="-19#5" to="-46#0" departLane="best"/>
    <trip id="16" depart="2.40" from="-372#2" to="172#0" departLane="best"/>
    <trip id="17" depart="2.55" from="337" to="353#3" departLane="best"/>
    <trip id="18" depart="2.70" from="-69#1" to="-68#1" departLane="best"/>
    <trip id="19" depart="2.85" from="-22#1" to="363" departLane="best"/>
    <trip id="20" depart="3.00" from="-153#0" to="370" departLane="best"/>
    <trip id="21" depart="3.15" from="-279" to="117#1" departLane="best"/>
    <trip id="22" depart="3.30" from="336#1" to="19#4" departLane="best"/>
    <trip id="23" depart="3.45" from="339" to="351#6" departLane="best"/>
    <trip id="24" depart="3.60" from="4#0" to="62" departLane="best"/>
    <trip id="25" depart="3.75" from="43#9" to="-8#5" departLane="best"/>
    <trip id="26" depart="3.90" from="354#5" to="-19#1" departLane="best"/>
    <trip id="27" depart="4.05" from="-64#1" to="461" departLane="best"/>
    <trip id="28" depart="4.20" from="-366#2" to="338#0" departLane="best"/>
    <trip id="29" depart="4.35" from="116#2" to="-20#2" departLane="best"/>
    <trip id="30" depart="4.50" from="-157#1" to="56#2" departLane="best"/>
    <trip id="31" depart="4.65" from="351#2" to="408#1" departLane="best"/>
    <trip id="32" depart="4.80" from="-8#6" to="46#4" departLane="best"/>
    <trip id="33" depart="4.95" from="-33#1" to="322" departLane="best"/>
    <trip id="34" depart="5.10" from="-64#0" to="-41#0" departLane="best"/>
    <trip id="35" depart="5.25" from="353#0" to="-70" departLane="best"/>
    <trip id="36" depart="5.40" from="29#8" to="402#0" departLane="best"/>
    <trip id="37" depart="5.55" from="332#1" to="-20#2" departLane="best"/>
    <trip id="38" depart="5.70" from="-3#2" to="414#0" departLane="best"/>
    <trip id="39" depart="5.85" from="421#3" to="36#2" departLane="best"/>
    <trip id="40" depart="6.00" from="400" to="16" departLane="best"/>
    <trip id="41" depart="6.15" from="336#2" to="392" departLane="best"/>
    <trip id="42" depart="6.30" from="351#5" to="68#1" departLane="best"/>
    <trip id="43" depart="6.45" from="1#1" to="374" departLane="best"/>
    <trip id="44" depart="6.60" from="8#5" to="1#2" departLane="best"/>
    <trip id="45" depart="6.75" from="402#0" to="-46#7" departLane="best"/>
    <trip id="46" depart="6.90" from="-19#5" to="399#2" departLane="best"/>
    <trip id="47" depart="7.05" from="33#0" to="-67#1" departLane="best"/>
    <trip id="48" depart="7.20" from="393" to="321#2" departLane="best"/>
    <trip id="49" depart="7.35" from="462#0" to="-105#1" departLane="best"/>
    <trip id="50" depart="7.50" from="359#0" to="354#3" departLane="best"/>
    <trip id="51" depart="7.65" from="366#0" to="1#2" departLane="best"/>
    <trip id="52" depart="7.80" from="-46#8" to="-44#0" departLane="best"/>
    <trip id="53" depart="7.95" from="-235" to="338#1" departLane="best"/>
    <trip id="54" depart="8.10" from="-133" to="51#4" departLane="best"/>
    <trip id="55" depart="8.25" from="332#1" to="-25#0" departLane="best"/>
    <trip id="56" depart="8.40" from="329#2" to="376" departLane="best"/>
    <trip id="57" depart="8.55" from="-43#1" to="362" departLane="best"/>
    <trip id="58" depart="8.70" from="384#1" to="-435#2" departLane="best"/>
    <trip id="59" depart="8.85" from="-29#4" to="348#0" departLane="best"/>
    <trip id="60" depart="9.00" from="406#0" to="-103#1" departLane="best"/>
    <trip id="61" depart="9.15" from="-372#0" to="355" departLane="best"/>
    <trip id="62" depart="9.30" from="46#2" to="68#2" departLane="best"/>
    <trip id="63" depart="9.45" from="-366#2" to="381#2" departLane="best"/>
    <trip id="64" depart="9.60" from="-20#2" to="41#1" departLane="best"/>
    <trip id="65" depart="9.75" from="61#0" to="-8#8" departLane="best"/>
    <trip id="66" depart="9.90" from="381#2" to="407#0" departLane="best"/>
    <trip id="67" depart="10.05" from="-435#2" to="354#6" departLane="best"/>
    <trip id="68" depart="10.20" from="-68#1" to="8#7" departLane="best"/>
    <trip id="69" depart="10.35" from="399#1" to="46#8" departLane="best"/>
    <trip id="70" depart="10.50" from="321#1" to="8#11" departLane="best"/>
    <trip id="71" depart="10.65" from="8#2" to="-45#5" departLane="best"/>
    <trip id="72" depart="10.80" from="-39" to="-172#0" departLane="best"/>
    <trip id="73" depart="10.95" from="51#0" to="-47#0" departLane="best"/>
    <trip id="74" depart="11.10" from="43#5" to="-68#0" departLane="best"/>
    <trip id="75" depart="11.25" from="277#6" to="-117#1" departLane="best"/>
    <trip id="76" depart="11.40" from="403" to="418#2" departLane="best"/>
    <trip id="77" depart="11.55" from="-45#2" to="68#0" departLane="best"/>
    <trip id="78" depart="11.70" from="-104#0" to="380#1" departLane="best"/>
    <trip id="79" depart="11.85" from="354#6" to="315" departLane="best"/>
    <trip id="80" depart="12.00" from="-43#2" to="399#2" departLane="best"/>
    <trip id="81" depart="12.15" from="-20#1" to="60#0" departLane="best"/>
    <trip id="82" depart="12.30" from="329#0" to="419#1" departLane="best"/>
    <trip id="83" depart="12.45" from="-460" to="354#6" departLane="best"/>
    <trip id="84" depart="12.60" from="45#1" to="320#1" departLane="best"/>
    <trip id="85" depart="12.75" from="-8#4" to="350" departLane="best"/>
    <trip id="86" depart="12.90" from="-364" to="-366#1" departLane="best"/>
    <trip id="87" depart="13.05" from="407#0" to="-307#1" departLane="best"/>
    <trip id="88" depart="13.20" from="-63#1" to="374" departLane="best"/>
    <trip id="89" depart="13.35" from="-60#1" to="-366#1" departLane="best"/>
    <trip id="90" depart="13.50" from="-104#0" to="330#0" departLane="best"/>
    <trip id="91" depart="13.65" from="412#2" to="-29#9" departLane="best"/>
    <trip id="92" depart="13.80" from="391" to="-43#7" departLane="best"/>
    <trip id="93" depart="13.95" from="128#0" to="338#1" departLane="best"/>
    <trip id="94" depart="14.10" from="27#0" to="-330#1" departLane="best"/>
    <trip id="95" depart="14.25" from="354#1" to="382#1" departLane="best"/>
    <trip id="96" depart="14.40" from="16" to="117#0" departLane="best"/>
    <trip id="97" depart="14.55" from="-102#1" to="-19#1" departLane="best"/>
    <trip id="98" depart="14.70" from="424" to="72" departLane="best"/>
    <trip id="99" depart="14.85" from="-51#1" to="43#3" departLane="best"/>
    <trip id="100" depart="15.00" from="-68#2" to="-235" departLane="best"/>
    <trip id="101" depart="15.15" from="414#1" to="157#1" departLane="best"/>
    <trip id="102" depart="15.30" from="25#0" to="347" departLane="best"/>
    <trip id="103" depart="15.45" from="-29#3" to="394" departLane="best"/>
    <trip id="104" depart="15.60" from="117#2" to="324#0" departLane="best"/>
    <trip id="105" depart="15.75" from="-19#1" to="41#0" departLane="best"/>
    <trip id="106" depart="15.90" from="-73#0" to="-277#1" departLane="best"/>
    <trip id="107" depart="16.05" from="408#1" to="384#3" departLane="best"/>
    <trip id="108" depart="16.20" from="354#1" to="-8#0" departLane="best"/>
    <trip id="109" depart="16.35" from="336#2" to="-277#1" departLane="best"/>
    <trip id="110" depart="16.50" from="415#2" to="-29#6" departLane="best"/>
    <trip id="111" depart="16.65" from="359#0" to="29#5" departLane="best"/>
    <trip id="112" depart="16.80" from="28" to="320#1" departLane="best"/>
    <trip id="113" depart="16.95" from="-277#5" to="460" departLane="best"/>
    <trip id="114" depart="17.10" from="-41#0" to="-45#2" departLane="best"/>
    <trip id="115" depart="17.25" from="353#3" to="411#2" departLane="best"/>
    <trip id="116" depart="17.40" from="338#0" to="51#0" departLane="best"/>
    <trip id="117" depart="17.55" from="-60#1" to="381#2" departLane="best"/>
    <trip id="118" depart="17.70" from="-43#2" to="-171" departLane="best"/>
    <trip id="119" depart="17.85" from="371" to="20#2" departLane="best"/>
    <trip id="120" depart="18.00" from="-46#1" to="172#2" departLane="best"/>
    <trip id="121" depart="18.15" from="44#1" to="414#1" departLane="best"/>
    <trip id="122" depart="18.30" from="414#1" to="401" departLane="best"/>
    <trip id="123" depart="18.45" from="117#1" to="-39" departLane="best"/>
    <trip id="124" depart="18.60" from="26#0" to="-153#0" departLane="best"/>
    <trip id="125" depart="18.75" from="434#1" to="51#0" departLane="best"/>
    <trip id="126" depart="18.90" from="117#3" to="-117#1" departLane="best"/>
    <trip id="127" depart="19.05" from="-52#1" to="-43#6" departLane="best"/>
    <trip id="128" depart="19.20" from="8#0" to="41#0" departLane="best"/>
    <trip id="129" depart="19.35" from="-64#0" to="-36#1" departLane="best"/>
    <trip id="130" depart="19.50" from="102#2" to="-45#5" departLane="best"/>
    <trip id="131" depart="19.65" from="418#1" to="420#1" departLane="best"/>
    <trip id="132" depart="19.80" from="-45#0" to="-68#1" departLane="best"/>
    <trip id="133" depart="19.95" from="46#2" to="-52#0" departLane="best"/>
    <trip id="134" depart="20.10" from="-19#3" to="-66" departLane="best"/>
    <trip id="135" depart="20.25" from="366#3" to="-8#2" departLane="best"/>
    <trip id="136" depart="20.40" from="-366#1" to="77#0" departLane="best"/>
    <trip id="137" depart="20.55" from="-46#4" to="424" departLane="best"/>
    <trip id="138" depart="20.70" from="385#0" to="351#5" departLane="best"/>
    <trip id="139" depart="20.85" from="-20#2" to="8#10" departLane="best"/>
    <trip id="140" depart="21.00" from="45#1" to="384#3" departLane="best"/>
    <trip id="141" depart="21.15" from="-39" to="8#6" departLane="best"/>
    <trip id="142" depart="21.30" from="-368#0" to="-153#0" departLane="best"/>
    <trip id="143" depart="21.45" from="-277#4" to="-68#2" departLane="best"/>
    <trip id="144" depart="21.60" from="-22#1" to="-3#2" departLane="best"/>
    <trip id="145" depart="21.75" from="391" to="348#0" departLane="best"/>
    <trip id="146" depart="21.90" from="-365" to="364" departLane="best"/>
    <trip id="147" depart="22.05" from="-70" to="412#2" departLane="best"/>
    <trip id="148" depart="22.20" from="68#2" to="-274" departLane="best"/>
    <trip id="149" depart="22.35" from="-8#4" to="357" departLane="best"/>
    <trip id="150" depart="22.50" from="-29#1" to="-51#2" departLane="best"/>
    <trip id="151" depart="22.65" from="25#1" to="36#0" departLane="best"/>
    <trip id="152" depart="22.80" from="20#2" to="22#2" departLane="best"/>
    <trip id="153" depart="22.95" from="425" to="103#1" departLane="best"/>
    <trip id="154" depart="23.10" from="351#0" to="47#1" departLane="best"/>
    <trip id="155" depart="23.25" from="117#0" to="384#0" departLane="best"/>
    <trip id="156" depart="23.40" from="462#1" to="51#3" departLane="best"/>
    <trip id="157" depart="23.55" from="-277#2" to="421#4" departLane="best"/>
    <trip id="158" depart="23.70" from="24" to="372#1" departLane="best"/>
    <trip id="159" depart="23.85" from="-277#6" to="-43#9" departLane="best"/>
    <trip id="160" depart="24.00" from="421#2" to="-46#3" departLane="best"/>
    <trip id="161" depart="24.15" from="-8#9" to="45#4" departLane="best"/>
    <trip id="162" depart="24.30" from="356" to="387#1" departLane="best"/>
    <trip id="163" depart="24.45" from="357" to="-307#0" departLane="best"/>
    <trip id="164" depart="24.60" from="-461" to="29#0" departLane="best"/>
    <trip id="165" depart="24.75" from="365" to="378#0" departLane="best"/>
    <trip id="166" depart="24.90" from="397#1" to="27#1" departLane="best"/>
    <trip id="167" depart="25.05" from="46#0" to="-117#3" departLane="best"/>
    <trip id="168" depart="25.20" from="-3#3" to="411#1" departLane="best"/>
    <trip id="169" depart="25.35" from="418#2" to="387#4" departLane="best"/>
    <trip id="170" depart="25.50" from="19#2" to="342" departLane="best"/>
    <trip id="171" depart="25.65" from="354#6" to="359#1" departLane="best"/>
    <trip id="172" depart="25.80" from="243" to="-33#1" departLane="best"/>
    <trip id="173" depart="25.95" from="353#5" to="153#0" departLane="best"/>
    <trip id="174" depart="26.10" from="51#3" to="336#2" departLane="best"/>
    <trip id="175" depart="26.25" from="351#9" to="354#7" departLane="best"/>
    <trip id="176" depart="26.40" from="307#1" to="43#3" departLane="best"/>
    <trip id="177" depart="26.55" from="-29#7" to="43#7" departLane="best"/>
    <trip id="178" depart="26.70" from="68#2" to="-39" departLane="best"/>
    <trip id="179" depart="26.85" from="384#1" to="51#0" departLane="best"/>
    <trip id="180" depart="27.00" from="-29#4" to="-29#0" departLane="best"/>
    <trip id="181" depart="27.15" from="-29#5" to="33#1" departLane="best"/>
    <trip id="182" depart="27.30" from="-235" to="421#3" departLane="best"/>
    <trip id="183" depart="27.45" from="-67#1" to="321#0" departLane="best"/>
    <trip id="184" depart="27.60" from="-435#4" to="342" departLane="best"/>
    <trip id="185" depart="27.75" from="-77#0" to="-116#1" departLane="best"/>
    <trip id="186" depart="27.90" from="-29#3" to="-104#0" departLane="best"/>
    <trip id="187" depart="28.05" from="67#0" to="409" departLane="best"/>
    <trip id="188" depart="28.20" from="-277#5" to="354#3" departLane="best"/>
    <trip id="189" depart="28.35" from="29#5" to="-44#2" departLane="best"/>
    <trip id="190" depart="28.50" from="384#1" to="-172#0" departLane="best"/>
    <trip id="191" depart="28.65" from="-8#5" to="235" departLane="best"/>
    <trip id="192" depart="28.80" from="-26#1" to="52#1" departLane="best"/>
    <trip id="193" depart="28.95" from="-43#5" to="-45#3" departLane="best"/>
    <trip id="194" depart="29.10" from="-67#1" to="350" departLane="best"/>
    <trip id="195" depart="29.25" from="403" to="330#2" departLane="best"/>
    <trip id="196" depart="29.40" from="387#0" to="397#2" departLane="best"/>
    <trip id="197" depart="29.55" from="128#0" to="-70" departLane="best"/>
    <trip id="198" depart="29.70" from="-57#0" to="-41#2" departLane="best"/>
    <trip id="199" depart="29.85" from="57#0" to="-277#4" departLane="best"/>
    <trip id="200" depart="30.00" from="-41#1" to="332#2" departLane="best"/>
    <trip id="201" depart="30.15" from="416#0" to="117#0" departLane="best"/>
    <trip id="202" depart="30.30" from="51#3" to="45#0" departLane="best"/>
    <trip id="203" depart="30.45" from="29#4" to="399#2" departLane="best"/>
    <trip id="204" depart="30.60" from="408#1" to="29#7" departLane="best"/>
    <trip id="205" depart="30.75" from="-67#0" to="8#5" departLane="best"/>
    <trip id="206" depart="30.90" from="421#0" to="329#2" departLane="best"/>
    <trip id="207" depart="31.05" from="418#2" to="-50" departLane="best"/>
    <trip id="208" depart="31.20" from="-70" to="348#0" departLane="best"/>
    <trip id="209" depart="31.35" from="-46#8" to="409" departLane="best"/>
    <trip id="210" depart="31.50" from="22#0" to="359#0" departLane="best"/>
    <trip id="211" depart="31.65" from="418#2" to="377" departLane="best"/>
    <trip id="212" depart="31.80" from="-8#4" to="62" departLane="best"/>
    <trip id="213" depart="31.95" from="347" to="374" departLane="best"/>
    <trip id="214" depart="32.10" from="-368#0" to="-45#3" departLane="best"/>
    <trip id="215" depart="32.25" from="74" to="412#2" departLane="best"/>
    <trip id="216" depart="32.40" from="316" to="374" departLane="best"/>
    <trip id="217" depart="32.55" from="-36#1" to="-43#8" departLane="best"/>
    <trip id="218" depart="32.70" from="-157#2" to="351#1" departLane="best"/>
    <trip id="219" depart="32.85" from="-102#1" to="33#2" departLane="best"/>
    <trip id="220" depart="33.00" from="412#1" to="20#2" departLane="best"/>
    <trip id="221" depart="33.15" from="330#2" to="243" departLane="best"/>
    <trip id="222" depart="33.30" from="-172#0" to="45#2" departLane="best"/>
    <trip id="223" depart="33.45" from="-116#1" to="-51#0" departLane="best"/>
    <trip id="224" depart="33.60" from="61#0" to="-29#2" departLane="best"/>
    <trip id="225" depart="33.75" from="1#0" to="51#0" departLane="best"/>
    <trip id="226" depart="33.90" from="414#0" to="330#1" departLane="best"/>
    <trip id="227" depart="34.05" from="-38#0" to="415#6" departLane="best"/>
    <trip id="228" depart="34.20" from="382#0" to="321#0" departLane="best"/>
    <trip id="229" depart="34.35" from="402#0" to="1#0" departLane="best"/>
    <trip id="230" depart="34.50" from="381#0" to="332#1" departLane="best"/>
    <trip id="231" depart="34.65" from="-157#2" to="66" departLane="best"/>
    <trip id="232" depart="34.80" from="397#1" to="-45#2" departLane="best"/>
    <trip id="233" depart="34.95" from="-172#2" to="-307#1" departLane="best"/>
    <trip id="234" depart="35.10" from="-29#10" to="-46#6" departLane="best"/>
    <trip id="235" depart="35.25" from="-22#0" to="-235" departLane="best"/>
    <trip id="236" depart="35.40" from="351#3" to="-117#3" departLane="best"/>
    <trip id="237" depart="35.55" from="384#2" to="-25#1" departLane="best"/>
    <trip id="238" depart="35.70" from="2" to="64#1" departLane="best"/>
    <trip id="239" depart="35.85" from="-20#2" to="29#8" departLane="best"/>
    <trip id="240" depart="36.00" from="392" to="330#2" departLane="best"/>
    <trip id="241" depart="36.15" from="-153#0" to="-46#7" departLane="best"/>
    <trip id="242" depart="36.30" from="117#3" to="-8#4" departLane="best"/>
    <trip id="243" depart="36.45" from="384#2" to="408#1" departLane="best"/>
    <trip id="244" depart="36.60" from="369" to="-8#6" departLane="best"/>
    <trip id="245" depart="36.75" from="277#1" to="66" departLane="best"/>
    <trip id="246" depart="36.90" from="128#0" to="-41#1" departLane="best"/>
    <trip id="247" depart="37.05" from="-46#1" to="37#0" departLane="best"/>
    <trip id="248" depart="37.20" from="-46#0" to="344#0" departLane="best"/>
    <trip id="249" depart="37.35" from="46#4" to="-68#0" departLane="best"/>
    <trip id="250" depart="37.50" from="-19#1" to="321#0" departLane="best"/>
    <trip id="251" depart="37.65" from="387#4" to="411#0" departLane="best"/>
    <trip id="252" depart="37.80" from="411#0" to="29#7" departLane="best"/>
    <trip id="253" depart="37.95" from="347" to="404" departLane="best"/>
    <trip id="254" depart="38.10" from="-29#7" to="354#6" departLane="best"/>
    <trip id="255" depart="38.25" from="-366#4" to="348#1" departLane="best"/>
    <trip id="256" depart="38.40" from="374" to="-29#0" departLane="best"/>
    <trip id="257" depart="38.55" from="-43#0" to="397#0" departLane="best"/>
    <trip id="258" depart="38.70" from="421#3" to="-50" departLane="best"/>
    <trip id="259" depart="38.85" from="358#0" to="-435#0" departLane="best"/>
    <trip id="260" depart="39.00" from="-172#2" to="363" departLane="best"/>
    <trip id="261" depart="39.15" from="26#0" to="415#5" departLane="best"/>
    <trip id="262" depart="39.30" from="51#3" to="386" departLane="best"/>
    <trip id="263" depart="39.45" from="3#2" to="351#6" departLane="best"/>
    <trip id="264" depart="39.60" from="-373" to="171" departLane="best"/>
    <trip id="265" depart="39.75" from="-3#1" to="8#5" departLane="best"/>
    <trip id="266" depart="39.90" from="29#3" to="-44#0" departLane="best"/>
    <trip id="267" depart="40.05" from="344#0" to="435#1" departLane="best"/>
    <trip id="268" depart="40.20" from="372#2" to="353#3" departLane="best"/>
    <trip id="269" depart="40.35" from="387#2" to="29#1" departLane="best"/>
    <trip id="270" depart="40.50" from="367" to="68#0" departLane="best"/>
    <trip id="271" depart="40.65" from="46#8" to="-105#1" departLane="best"/>
    <trip id="272" depart="40.80" from="243" to="359#1" departLane="best"/>
    <trip id="273" depart="40.95" from="354#6" to="7#2" departLane="best"/>
    <trip id="274" depart="41.10" from="349#2" to="384#0" departLane="best"/>
    <trip id="275" depart="41.25" from="354#1" to="354#4" departLane="best"/>
    <trip id="276" depart="41.40" from="397#1" to="8#3" departLane="best"/>
    <trip id="277" depart="41.55" from="274" to="-29#2" departLane="best"/>
    <trip id="278" depart="41.70" from="431" to="29#1" departLane="best"/>
    <trip id="279" depart="41.85" from="366#2" to="354#6" departLane="best"/>
    <trip id="280" depart="42.00" from="-8#11" to="-57#0" departLane="best"/>
    <trip id="281" depart="42.15" from="67#1" to="117#0" departLane="best"/>
    <trip id="282" depart="42.30" from="46#0" to="68#2" departLane="best"/>
    <trip id="283" depart="42.45" from="104#0" to="408#1" departLane="best"/>
    <trip id="284" depart="42.60" from="29#1" to="435#3" departLane="best"/>
    <trip id="285" depart="42.75" from="329#0" to="29#9" departLane="best"/>
    <trip id="286" depart="42.90" from="-43#9" to="116#2" departLane="best"/>
    <trip id="287" depart="43.05" from="8#10" to="29#2" departLane="best"/>
    <trip id="288" depart="43.20" from="43#6" to="351#5" departLane="best"/>
    <trip id="289" depart="43.35" from="344#0" to="-277#6" departLane="best"/>
    <trip id="290" depart="43.50" from="462#1" to="29#6" departLane="best"/>
    <trip id="291" depart="43.65" from="-20#1" to="70" departLane="best"/>
    <trip id="292" depart="43.80" from="-102#0" to="41#0" departLane="best"/>
    <trip id="293" depart="43.95" from="331#1" to="48" departLane="best"/>
    <trip id="294" depart="44.10" from="407#0" to="345#1" departLane="best"/>
    <trip id="295" depart="44.25" from="414#1" to="-372#0" departLane="best"/>
    <trip id="296" depart="44.40" from="382#0" to="66" departLane="best"/>
    <trip id="297" depart="44.55" from="387#5" to="29#8" departLane="best"/>
    <trip id="298" depart="44.70" from="336#1" to="-366#4" departLane="best"/>
    <trip id="299" depart="44.85" from="353#2" to="405#1" departLane="best"/>
    <trip id="300" depart="45.00" from="8#4" to="338#0" departLane="best"/>
    <trip id="301" depart="45.15" from="-277#4" to="411#0" departLane="best"/>
    <trip id="302" depart="45.30" from="331#1" to="335#1" departLane="best"/>
    <trip id="303" depart="45.45" from="374" to="351#9" departLane="best"/>
    <trip id="304" depart="45.60" from="375" to="4#2" departLane="best"/>
    <trip id="305" depart="45.75" from="45#3" to="412#2" departLane="best"/>
    <trip id="306" depart="45.90" from="406#1" to="329#1" departLane="best"/>
    <trip id="307" depart="46.05" from="-25#1" to="22#0" departLane="best"/>
    <trip id="308" depart="46.20" from="345#0" to="-8#4" departLane="best"/>
    <trip id="309" depart="46.35" from="314#0" to="367" departLane="best"/>
    <trip id="310" depart="46.50" from="-43#9" to="335#1" departLane="best"/>
    <trip id="311" depart="46.65" from="-372#1" to="338#0" departLane="best"/>
    <trip id="312" depart="46.80" from="41#0" to="332#2" departLane="best"/>
    <trip id="313" depart="46.95" from="69#0" to="368#2" departLane="best"/>
    <trip id="314" depart="47.10" from="412#1" to="372#2" departLane="best"/>
    <trip id="315" depart="47.25" from="-366#1" to="46#5" departLane="best"/>
    <trip id="316" depart="47.40" from="56#0" to="426" departLane="best"/>
    <trip id="317" depart="47.55" from="412#2" to="315" departLane="best"/>
    <trip id="318" depart="47.70" from="-116#2" to="409" departLane="best"/>
    <trip id="319" depart="47.85" from="-279" to="372#0" departLane="best"/>
    <trip id="320" depart="48.00" from="351#2" to="408#1" departLane="best"/>
    <trip id="321" depart="48.15" from="60#0" to="7#1" departLane="best"/>
    <trip id="322" depart="48.30" from="-330#0" to="66" departLane="best"/>
    <trip id="323" depart="48.45" from="400" to="-372#0" departLane="best"/>
    <trip id="324" depart="48.60" from="33#1" to="344#2" departLane="best"/>
    <trip id="325" depart="48.75" from="399#1" to="68#0" departLane="best"/>
    <trip id="326" depart="48.90" from="-35" to="-277#5" departLane="best"/>
    <trip id="327" depart="49.05" from="423" to="45#3" departLane="best"/>
    <trip id="328" depart="49.20" from="-46#7" to="69#1" departLane="best"/>
    <trip id="329" depart="49.35" from="68#1" to="60#1" departLane="best"/>
    <trip id="330" depart="49.50" from="-366#1" to="279" departLane="best"/>
    <trip id="331" depart="49.65" from="383" to="68#2" departLane="best"/>
    <trip id="332" depart="49.80" from="7#2" to="70" departLane="best"/>
    <trip id="333" depart="49.95" from="330#2" to="23" departLane="best"/>
    <trip id="334" depart="50.10" from="351#7" to="-277#5" departLane="best"/>
    <trip id="335" depart="50.25" from="339" to="336#0" departLane="best"/>
    <trip id="336" depart="50.40" from="-43#9" to="-29#4" departLane="best"/>
    <trip id="337" depart="50.55" from="102#2" to="316" departLane="best"/>
    <trip id="338" depart="50.70" from="380#2" to="374" departLane="best"/>
    <trip id="339" depart="50.85" from="-67#0" to="319" departLane="best"/>
    <trip id="340" depart="51.00" from="-38#0" to="386" departLane="best"/>
    <trip id="341" depart="51.15" from="351#6" to="370" departLane="best"/>
    <trip id="342" depart="51.30" from="-8#11" to="329#2" departLane="best"/>
    <trip id="343" depart="51.45" from="-46#4" to="-46#4" departLane="best"/>
    <trip id="344" depart="51.60" from="358#2" to="333" departLane="best"/>
    <trip id="345" depart="51.75" from="393" to="8#4" departLane="best"/>
    <trip id="346" depart="51.90" from="357" to="354#2" departLane="best"/>
    <trip id="347" depart="52.05" from="-339" to="366#4" departLane="best"/>
    <trip id="348" depart="52.20" from="-117#3" to="-8#7" departLane="best"/>
    <trip id="349" depart="52.35" from="307#1" to="344#2" departLane="best"/>
    <trip id="350" depart="52.50" from="307#0" to="-128#0" departLane="best"/>
    <trip id="351" depart="52.65" from="-330#0" to="349#1" departLane="best"/>
    <trip id="352" depart="52.80" from="-307#1" to="-45#2" departLane="best"/>
    <trip id="353" depart="52.95" from="-19#4" to="29#8" departLane="best"/>
    <trip id="354" depart="53.10" from="-63#0" to="380#0" departLane="best"/>
    <trip id="355" depart="53.25" from="396#0" to="157#0" departLane="best"/>
    <trip id="356" depart="53.40" from="330#1" to="421#4" departLane="best"/>
    <trip id="357" depart="53.55" from="-372#2" to="405#1" departLane="best"/>
    <trip id="358" depart="53.70" from="51#4" to="397#1" departLane="best"/>
    <trip id="359" depart="53.85" from="-19#3" to="-29#8" departLane="best"/>
    <trip id="360" depart="54.00" from="-29#1" to="419#1" departLane="best"/>
    <trip id="361" depart="54.15" from="8#7" to="-43#9" departLane="best"/>
    <trip id="362" depart="54.30" from="64#0" to="429" departLane="best"/>
    <trip id="363" depart="54.45" from="394" to="353#5" departLane="best"/>
    <trip id="364" depart="54.60" from="-29#7" to="413" departLane="best"/>
    <trip id="365" depart="54.75" from="330#1" to="26#0" departLane="best"/>
    <trip id="366" depart="54.90" from="435#3" to="-372#2" departLane="best"/>
    <trip id="367" depart="55.05" from="404" to="-43#3" departLane="best"/>
    <trip id="368" depart="55.20" from="-460" to="-20#0" departLane="best"/>
    <trip id="369" depart="55.35" from="338#0" to="29#7" departLane="best"/>
    <trip id="370" depart="55.50" from="366#1" to="351#10" departLane="best"/>
    <trip id="371" depart="55.65" from="351#7" to="-8#1" departLane="best"/>
    <trip id="372" depart="55.80" from="-116#2" to="368#0" departLane="best"/>
    <trip id="373" depart="55.95" from="8#3" to="56#2" departLane="best"/>
    <trip id="374" depart="56.10" from="29#6" to="-73#0" departLane="best"/>
    <trip id="375" depart="56.25" from="388" to="-8#5" departLane="best"/>
    <trip id="376" depart="56.40" from="434#0" to="44#2" departLane="best"/>
    <trip id="377" depart="56.55" from="360" to="-366#4" departLane="best"/>
    <trip id="378" depart="56.70" from="-43#6" to="-102#1" departLane="best"/>
    <trip id="379" depart="56.85" from="366#0" to="318" departLane="best"/>
    <trip id="380" depart="57.00" from="3#0" to="397#1" departLane="best"/>
    <trip id="381" depart="57.15" from="-43#0" to="340" departLane="best"/>
    <trip id="382" depart="57.30" from="-277#5" to="-408#0" departLane="best"/>
    <trip id="383" depart="57.45" from="43#6" to="116#0" departLane="best"/>
    <trip id="384" depart="57.60" from="57#0" to="-43#9" departLane="best"/>
    <trip id="385" depart="57.75" from="16" to="29#0" departLane="best"/>
    <trip id="386" depart="57.90" from="380#1" to="-43#6" departLane="best"/>
    <trip id="387" depart="58.05" from="-38#1" to="381#2" departLane="best"/>