<?xml version="1.0" encoding="UTF-8"?>

<!-- generated on 01/25/18 11:20:35 by SUMO netgenerate Version 0.24.0
<?xml version="1.0" encoding="UTF-8"?>

<configuration xmlns:xsi="http://www.w3.org/2001/XMLSchema-instance" xsi:noNamespaceSchemaLocation="http://sumo.dlr.de/xsd/netgenerateConfiguration.xsd">

    <grid_network>
        <grid value="true"/>
        <grid.x-number value="5"/>
        <grid.y-number value="6"/>
        <grid.x-length value="800"/>
        <grid.y-length value="1000"/>
    </grid_network>

    <output>
        <output-file value="input_net.net.xml"/>
    </output>

    <processing>
        <no-internal-links value="true"/>
    </processing>

    <building_defaults>
        <default.lanenumber value="4"/>
        <default.speed value="15"/>
    </building_defaults>

</configuration>
-->

<net version="0.13" xmlns:xsi="http://www.w3.org/2001/XMLSchema-instance" xsi:noNamespaceSchemaLocation="http://sumo.dlr.de/xsd/net_file.xsd">

    <location netOffset="0.00,0.00" convBoundary="0.00,0.00,3200.00,5000.00" origBoundary="0.00,0.00,3200.00,5000.00" projParameter="!"/>

    <edge id="0/0to0/1" from="0/0" to="0/1" priority="-1">
        <lane id="0/0to0/1_0" index="0" speed="15.00" length="1000.00" shape="11.55,13.15 11.55,985.35"/>
        <lane id="0/0to0/1_1" index="1" speed="15.00" length="1000.00" shape="8.25,13.15 8.25,985.35"/>
        <lane id="0/0to0/1_2" index="2" speed="15.00" length="1000.00" shape="4.95,13.15 4.95,985.35"/>
        <lane id="0/0to0/1_3" index="3" speed="15.00" length="1000.00" shape="1.65,13.15 1.65,985.35"/>
    </edge>
    <edge id="0/0to1/0" from="0/0" to="1/0" priority="-1">
        <lane id="0/0to1/0_0" index="0" speed="15.00" length="800.00" shape="13.15,-11.55 785.35,-11.55"/>
        <lane id="0/0to1/0_1" index="1" speed="15.00" length="800.00" shape="13.15,-8.25 785.35,-8.25"/>
        <lane id="0/0to1/0_2" index="2" speed="15.00" length="800.00" shape="13.15,-4.95 785.35,-4.95"/>
        <lane id="0/0to1/0_3" index="3" speed="15.00" length="800.00" shape="13.15,-1.65 785.35,-1.65"/>
    </edge>
    <edge id="0/1to0/0" from="0/1" to="0/0" priority="-1">
        <lane id="0/1to0/0_0" index="0" speed="15.00" length="1000.00" shape="-11.55,985.35 -11.55,13.15"/>
        <lane id="0/1to0/0_1" index="1" speed="15.00" length="1000.00" shape="-8.25,985.35 -8.25,13.15"/>
        <lane id="0/1to0/0_2" index="2" speed="15.00" length="1000.00" shape="-4.95,985.35 -4.95,13.15"/>
        <lane id="0/1to0/0_3" index="3" speed="15.00" length="1000.00" shape="-1.65,985.35 -1.65,13.15"/>
    </edge>
    <edge id="0/1to0/2" from="0/1" to="0/2" priority="-1">
        <lane id="0/1to0/2_0" index="0" speed="15.00" length="1000.00" shape="11.55,1014.65 11.55,1985.35"/>
        <lane id="0/1to0/2_1" index="1" speed="15.00" length="1000.00" shape="8.25,1014.65 8.25,1985.35"/>
        <lane id="0/1to0/2_2" index="2" speed="15.00" length="1000.00" shape="4.95,1014.65 4.95,1985.35"/>
        <lane id="0/1to0/2_3" index="3" speed="15.00" length="1000.00" shape="1.65,1014.65 1.65,1985.35"/>
    </edge>
    <edge id="0/1to1/1" from="0/1" to="1/1" priority="-1">
        <lane id="0/1to1/1_0" index="0" speed="15.00" length="800.00" shape="14.65,988.45 785.35,988.45"/>
        <lane id="0/1to1/1_1" index="1" speed="15.00" length="800.00" shape="14.65,991.75 785.35,991.75"/>
        <lane id="0/1to1/1_2" index="2" speed="15.00" length="800.00" shape="14.65,995.05 785.35,995.05"/>
        <lane id="0/1to1/1_3" index="3" speed="15.00" length="800.00" shape="14.65,998.35 785.35,998.35"/>
    </edge>
    <edge id="0/2to0/1" from="0/2" to="0/1" priority="-1">
        <lane id="0/2to0/1_0" index="0" speed="15.00" length="1000.00" shape="-11.55,1985.35 -11.55,1014.65"/>
        <lane id="0/2to0/1_1" index="1" speed="15.00" length="1000.00" shape="-8.25,1985.35 -8.25,1014.65"/>
        <lane id="0/2to0/1_2" index="2" speed="15.00" length="1000.00" shape="-4.95,1985.35 -4.95,1014.65"/>
        <lane id="0/2to0/1_3" index="3" speed="15.00" length="1000.00" shape="-1.65,1985.35 -1.65,1014.65"/>
    </edge>
    <edge id="0/2to0/3" from="0/2" to="0/3" priority="-1">
        <lane id="0/2to0/3_0" index="0" speed="15.00" length="1000.00" shape="11.55,2014.65 11.55,2985.35"/>
        <lane id="0/2to0/3_1" index="1" speed="15.00" length="1000.00" shape="8.25,2014.65 8.25,2985.35"/>
        <lane id="0/2to0/3_2" index="2" speed="15.00" length="1000.00" shape="4.95,2014.65 4.95,2985.35"/>
        <lane id="0/2to0/3_3" index="3" speed="15.00" length="1000.00" shape="1.65,2014.65 1.65,2985.35"/>
    </edge>
    <edge id="0/2to1/2" from="0/2" to="1/2" priority="-1">
        <lane id="0/2to1/2_0" index="0" speed="15.00" length="800.00" shape="14.65,1988.45 785.35,1988.45"/>
        <lane id="0/2to1/2_1" index="1" speed="15.00" length="800.00" shape="14.65,1991.75 785.35,1991.75"/>
        <lane id="0/2to1/2_2" index="2" speed="15.00" length="800.00" shape="14.65,1995.05 785.35,1995.05"/>
        <lane id="0/2to1/2_3" index="3" speed="15.00" length="800.00" shape="14.65,1998.35 785.35,1998.35"/>
    </edge>
    <edge id="0/3to0/2" from="0/3" to="0/2" priority="-1">
        <lane id="0/3to0/2_0" index="0" speed="15.00" length="1000.00" shape="-11.55,2985.35 -11.55,2014.65"/>
        <lane id="0/3to0/2_1" index="1" speed="15.00" length="1000.00" shape="-8.25,2985.35 -8.25,2014.65"/>
        <lane id="0/3to0/2_2" index="2" speed="15.00" length="1000.00" shape="-4.95,2985.35 -4.95,2014.65"/>
        <lane id="0/3to0/2_3" index="3" speed="15.00" length="1000.00" shape="-1.65,2985.35 -1.65,2014.65"/>
    </edge>
    <edge id="0/3to0/4" from="0/3" to="0/4" priority="-1">
        <lane id="0/3to0/4_0" index="0" speed="15.00" length="1000.00" shape="11.55,3014.65 11.55,3985.35"/>
        <lane id="0/3to0/4_1" index="1" speed="15.00" length="1000.00" shape="8.25,3014.65 8.25,3985.35"/>
        <lane id="0/3to0/4_2" index="2" speed="15.00" length="1000.00" shape="4.95,3014.65 4.95,3985.35"/>
        <lane id="0/3to0/4_3" index="3" speed="15.00" length="1000.00" shape="1.65,3014.65 1.65,3985.35"/>
    </edge>
    <edge id="0/3to1/3" from="0/3" to="1/3" priority="-1">
        <lane id="0/3to1/3_0" index="0" speed="15.00" length="800.00" shape="14.65,2988.45 785.35,2988.45"/>
        <lane id="0/3to1/3_1" index="1" speed="15.00" length="800.00" shape="14.65,2991.75 785.35,2991.75"/>
        <lane id="0/3to1/3_2" index="2" speed="15.00" length="800.00" shape="14.65,2995.05 785.35,2995.05"/>
        <lane id="0/3to1/3_3" index="3" speed="15.00" length="800.00" shape="14.65,2998.35 785.35,2998.35"/>
    </edge>
    <edge id="0/4to0/3" from="0/4" to="0/3" priority="-1">
        <lane id="0/4to0/3_0" index="0" speed="15.00" length="1000.00" shape="-11.55,3985.35 -11.55,3014.65"/>
        <lane id="0/4to0/3_1" index="1" speed="15.00" length="1000.00" shape="-8.25,3985.35 -8.25,3014.65"/>
        <lane id="0/4to0/3_2" index="2" speed="15.00" length="1000.00" shape="-4.95,3985.35 -4.95,3014.65"/>
        <lane id="0/4to0/3_3" index="3" speed="15.00" length="1000.00" shape="-1.65,3985.35 -1.65,3014.65"/>
    </edge>
    <edge id="0/4to0/5" from="0/4" to="0/5" priority="-1">
        <lane id="0/4to0/5_0" index="0" speed="15.00" length="1000.00" shape="11.55,4014.65 11.55,4986.85"/>
        <lane id="0/4to0/5_1" index="1" speed="15.00" length="1000.00" shape="8.25,4014.65 8.25,4986.85"/>
        <lane id="0/4to0/5_2" index="2" speed="15.00" length="1000.00" shape="4.95,4014.65 4.95,4986.85"/>
        <lane id="0/4to0/5_3" index="3" speed="15.00" length="1000.00" shape="1.65,4014.65 1.65,4986.85"/>
    </edge>
    <edge id="0/4to1/4" from="0/4" to="1/4" priority="-1">
        <lane id="0/4to1/4_0" index="0" speed="15.00" length="800.00" shape="14.65,3988.45 785.35,3988.45"/>
        <lane id="0/4to1/4_1" index="1" speed="15.00" length="800.00" shape="14.65,3991.75 785.35,3991.75"/>
        <lane id="0/4to1/4_2" index="2" speed="15.00" length="800.00" shape="14.65,3995.05 785.35,3995.05"/>
        <lane id="0/4to1/4_3" index="3" speed="15.00" length="800.00" shape="14.65,3998.35 785.35,3998.35"/>
    </edge>
    <edge id="0/5to0/4" from="0/5" to="0/4" priority="-1">
        <lane id="0/5to0/4_0" index="0" speed="15.00" length="1000.00" shape="-11.55,4986.85 -11.55,4014.65"/>
        <lane id="0/5to0/4_1" index="1" speed="15.00" length="1000.00" shape="-8.25,4986.85 -8.25,4014.65"/>
        <lane id="0/5to0/4_2" index="2" speed="15.00" length="1000.00" shape="-4.95,4986.85 -4.95,4014.65"/>
        <lane id="0/5to0/4_3" index="3" speed="15.00" length="1000.00" shape="-1.65,4986.85 -1.65,4014.65"/>
    </edge>
    <edge id="0/5to1/5" from="0/5" to="1/5" priority="-1">
        <lane id="0/5to1/5_0" index="0" speed="15.00" length="800.00" shape="13.15,4988.45 785.35,4988.45"/>
        <lane id="0/5to1/5_1" index="1" speed="15.00" length="800.00" shape="13.15,4991.75 785.35,4991.75"/>
        <lane id="0/5to1/5_2" index="2" speed="15.00" length="800.00" shape="13.15,4995.05 785.35,4995.05"/>
        <lane id="0/5to1/5_3" index="3" speed="15.00" length="800.00" shape="13.15,4998.35 785.35,4998.35"/>
    </edge>
    <edge id="1/0to0/0" from="1/0" to="0/0" priority="-1">
        <lane id="1/0to0/0_0" index="0" speed="15.00" length="800.00" shape="785.35,11.55 13.15,11.55"/>
        <lane id="1/0to0/0_1" index="1" speed="15.00" length="800.00" shape="785.35,8.25 13.15,8.25"/>
        <lane id="1/0to0/0_2" index="2" speed="15.00" length="800.00" shape="785.35,4.95 13.15,4.95"/>
        <lane id="1/0to0/0_3" index="3" speed="15.00" length="800.00" shape="785.35,1.65 13.15,1.65"/>
    </edge>
    <edge id="1/0to1/1" from="1/0" to="1/1" priority="-1">
        <lane id="1/0to1/1_0" index="0" speed="15.00" length="1000.00" shape="811.55,14.65 811.55,985.35"/>
        <lane id="1/0to1/1_1" index="1" speed="15.00" length="1000.00" shape="808.25,14.65 808.25,985.35"/>
        <lane id="1/0to1/1_2" index="2" speed="15.00" length="1000.00" shape="804.95,14.65 804.95,985.35"/>
        <lane id="1/0to1/1_3" index="3" speed="15.00" length="1000.00" shape="801.65,14.65 801.65,985.35"/>
    </edge>
    <edge id="1/0to2/0" from="1/0" to="2/0" priority="-1">
        <lane id="1/0to2/0_0" index="0" speed="15.00" length="800.00" shape="814.65,-11.55 1585.35,-11.55"/>
        <lane id="1/0to2/0_1" index="1" speed="15.00" length="800.00" shape="814.65,-8.25 1585.35,-8.25"/>
        <lane id="1/0to2/0_2" index="2" speed="15.00" length="800.00" shape="814.65,-4.95 1585.35,-4.95"/>
        <lane id="1/0to2/0_3" index="3" speed="15.00" length="800.00" shape="814.65,-1.65 1585.35,-1.65"/>
    </edge>
    <edge id="1/1to0/1" from="1/1" to="0/1" priority="-1">
        <lane id="1/1to0/1_0" index="0" speed="15.00" length="800.00" shape="785.35,1011.55 14.65,1011.55"/>
        <lane id="1/1to0/1_1" index="1" speed="15.00" length="800.00" shape="785.35,1008.25 14.65,1008.25"/>
        <lane id="1/1to0/1_2" index="2" speed="15.00" length="800.00" shape="785.35,1004.95 14.65,1004.95"/>
        <lane id="1/1to0/1_3" index="3" speed="15.00" length="800.00" shape="785.35,1001.65 14.65,1001.65"/>
    </edge>
    <edge id="1/1to1/0" from="1/1" to="1/0" priority="-1">
        <lane id="1/1to1/0_0" index="0" speed="15.00" length="1000.00" shape="788.45,985.35 788.45,14.65"/>
        <lane id="1/1to1/0_1" index="1" speed="15.00" length="1000.00" shape="791.75,985.35 791.75,14.65"/>
        <lane id="1/1to1/0_2" index="2" speed="15.00" length="1000.00" shape="795.05,985.35 795.05,14.65"/>
        <lane id="1/1to1/0_3" index="3" speed="15.00" length="1000.00" shape="798.35,985.35 798.35,14.65"/>
    </edge>
    <edge id="1/1to1/2" from="1/1" to="1/2" priority="-1">
        <lane id="1/1to1/2_0" index="0" speed="15.00" length="1000.00" shape="811.55,1014.65 811.55,1985.35"/>
        <lane id="1/1to1/2_1" index="1" speed="15.00" length="1000.00" shape="808.25,1014.65 808.25,1985.35"/>
        <lane id="1/1to1/2_2" index="2" speed="15.00" length="1000.00" shape="804.95,1014.65 804.95,1985.35"/>
        <lane id="1/1to1/2_3" index="3" speed="15.00" length="1000.00" shape="801.65,1014.65 801.65,1985.35"/>
    </edge>
    <edge id="1/1to2/1" from="1/1" to="2/1" priority="-1">
        <lane id="1/1to2/1_0" index="0" speed="15.00" length="800.00" shape="814.65,988.45 1585.35,988.45"/>
        <lane id="1/1to2/1_1" index="1" speed="15.00" length="800.00" shape="814.65,991.75 1585.35,991.75"/>
        <lane id="1/1to2/1_2" index="2" speed="15.00" length="800.00" shape="814.65,995.05 1585.35,995.05"/>
        <lane id="1/1to2/1_3" index="3" speed="15.00" length="800.00" shape="814.65,998.35 1585.35,998.35"/>
    </edge>
    <edge id="1/2to0/2" from="1/2" to="0/2" priority="-1">
        <lane id="1/2to0/2_0" index="0" speed="15.00" length="800.00" shape="785.35,2011.55 14.65,2011.55"/>
        <lane id="1/2to0/2_1" index="1" speed="15.00" length="800.00" shape="785.35,2008.25 14.65,2008.25"/>
        <lane id="1/2to0/2_2" index="2" speed="15.00" length="800.00" shape="785.35,2004.95 14.65,2004.95"/>
        <lane id="1/2to0/2_3" index="3" speed="15.00" length="800.00" shape="785.35,2001.65 14.65,2001.65"/>
    </edge>
    <edge id="1/2to1/1" from="1/2" to="1/1" priority="-1">
        <lane id="1/2to1/1_0" index="0" speed="15.00" length="1000.00" shape="788.45,1985.35 788.45,1014.65"/>
        <lane id="1/2to1/1_1" index="1" speed="15.00" length="1000.00" shape="791.75,1985.35 791.75,1014.65"/>
        <lane id="1/2to1/1_2" index="2" speed="15.00" length="1000.00" shape="795.05,1985.35 795.05,1014.65"/>
        <lane id="1/2to1/1_3" index="3" speed="15.00" length="1000.00" shape="798.35,1985.35 798.35,1014.65"/>
    </edge>
    <edge id="1/2to1/3" from="1/2" to="1/3" priority="-1">
        <lane id="1/2to1/3_0" index="0" speed="15.00" length="1000.00" shape="811.55,2014.65 811.55,2985.35"/>
        <lane id="1/2to1/3_1" index="1" speed="15.00" length="1000.00" shape="808.25,2014.65 808.25,2985.35"/>
        <lane id="1/2to1/3_2" index="2" speed="15.00" length="1000.00" shape="804.95,2014.65 804.95,2985.35"/>
        <lane id="1/2to1/3_3" index="3" speed="15.00" length="1000.00" shape="801.65,2014.65 801.65,2985.35"/>
    </edge>
    <edge id="1/2to2/2" from="1/2" to="2/2" priority="-1">
        <lane id="1/2to2/2_0" index="0" speed="15.00" length="800.00" shape="814.65,1988.45 1585.35,1988.45"/>
        <lane id="1/2to2/2_1" index="1" speed="15.00" length="800.00" shape="814.65,1991.75 1585.35,1991.75"/>
        <lane id="1/2to2/2_2" index="2" speed="15.00" length="800.00" shape="814.65,1995.05 1585.35,1995.05"/>
        <lane id="1/2to2/2_3" index="3" speed="15.00" length="800.00" shape="814.65,1998.35 1585.35,1998.35"/>
    </edge>
    <edge id="1/3to0/3" from="1/3" to="0/3" priority="-1">
        <lane id="1/3to0/3_0" index="0" speed="15.00" length="800.00" shape="785.35,3011.55 14.65,3011.55"/>
        <lane id="1/3to0/3_1" index="1" speed="15.00" length="800.00" shape="785.35,3008.25 14.65,3008.25"/>
        <lane id="1/3to0/3_2" index="2" speed="15.00" length="800.00" shape="785.35,3004.95 14.65,3004.95"/>
        <lane id="1/3to0/3_3" index="3" speed="15.00" length="800.00" shape="785.35,3001.65 14.65,3001.65"/>
    </edge>
    <edge id="1/3to1/2" from="1/3" to="1/2" priority="-1">
        <lane id="1/3to1/2_0" index="0" speed="15.00" length="1000.00" shape="788.45,2985.35 788.45,2014.65"/>
        <lane id="1/3to1/2_1" index="1" speed="15.00" length="1000.00" shape="791.75,2985.35 791.75,2014.65"/>
        <lane id="1/3to1/2_2" index="2" speed="15.00" length="1000.00" shape="795.05,2985.35 795.05,2014.65"/>
        <lane id="1/3to1/2_3" index="3" speed="15.00" length="1000.00" shape="798.35,2985.35 798.35,2014.65"/>
    </edge>
    <edge id="1/3to1/4" from="1/3" to="1/4" priority="-1">
        <lane id="1/3to1/4_0" index="0" speed="15.00" length="1000.00" shape="811.55,3014.65 811.55,3985.35"/>
        <lane id="1/3to1/4_1" index="1" speed="15.00" length="1000.00" shape="808.25,3014.65 808.25,3985.35"/>
        <lane id="1/3to1/4_2" index="2" speed="15.00" length="1000.00" shape="804.95,3014.65 804.95,3985.35"/>
        <lane id="1/3to1/4_3" index="3" speed="15.00" length="1000.00" shape="801.65,3014.65 801.65,3985.35"/>
    </edge>
    <edge id="1/3to2/3" from="1/3" to="2/3" priority="-1">
        <lane id="1/3to2/3_0" index="0" speed="15.00" length="800.00" shape="814.65,2988.45 1585.35,2988.45"/>
        <lane id="1/3to2/3_1" index="1" speed="15.00" length="800.00" shape="814.65,2991.75 1585.35,2991.75"/>
        <lane id="1/3to2/3_2" index="2" speed="15.00" length="800.00" shape="814.65,2995.05 1585.35,2995.05"/>
        <lane id="1/3to2/3_3" index="3" speed="15.00" length="800.00" shape="814.65,2998.35 1585.35,2998.35"/>
    </edge>
    <edge id="1/4to0/4" from="1/4" to="0/4" priority="-1">
        <lane id="1/4to0/4_0" index="0" speed="15.00" length="800.00" shape="785.35,4011.55 14.65,4011.55"/>
        <lane id="1/4to0/4_1" index="1" speed="15.00" length="800.00" shape="785.35,4008.25 14.65,4008.25"/>
        <lane id="1/4to0/4_2" index="2" speed="15.00" length="800.00" shape="785.35,4004.95 14.65,4004.95"/>
        <lane id="1/4to0/4_3" index="3" speed="15.00" length="800.00" shape="785.35,4001.65 14.65,4001.65"/>
    </edge>
    <edge id="1/4to1/3" from="1/4" to="1/3" priority="-1">
        <lane id="1/4to1/3_0" index="0" speed="15.00" length="1000.00" shape="788.45,3985.35 788.45,3014.65"/>
        <lane id="1/4to1/3_1" index="1" speed="15.00" length="1000.00" shape="791.75,3985.35 791.75,3014.65"/>
        <lane id="1/4to1/3_2" index="2" speed="15.00" length="1000.00" shape="795.05,3985.35 795.05,3014.65"/>
        <lane id="1/4to1/3_3" index="3" speed="15.00" length="1000.00" shape="798.35,3985.35 798.35,3014.65"/>
    </edge>
    <edge id="1/4to1/5" from="1/4" to="1/5" priority="-1">
        <lane id="1/4to1/5_0" index="0" speed="15.00" length="1000.00" shape="811.55,4014.65 811.55,4985.35"/>
        <lane id="1/4to1/5_1" index="1" speed="15.00" length="1000.00" shape="808.25,4014.65 808.25,4985.35"/>
        <lane id="1/4to1/5_2" index="2" speed="15.00" length="1000.00" shape="804.95,4014.65 804.95,4985.35"/>
        <lane id="1/4to1/5_3" index="3" speed="15.00" length="1000.00" shape="801.65,4014.65 801.65,4985.35"/>
    </edge>
    <edge id="1/4to2/4" from="1/4" to="2/4" priority="-1">
        <lane id="1/4to2/4_0" index="0" speed="15.00" length="800.00" shape="814.65,3988.45 1585.35,3988.45"/>
        <lane id="1/4to2/4_1" index="1" speed="15.00" length="800.00" shape="814.65,3991.75 1585.35,3991.75"/>
        <lane id="1/4to2/4_2" index="2" speed="15.00" length="800.00" shape="814.65,3995.05 1585.35,3995.05"/>
        <lane id="1/4to2/4_3" index="3" speed="15.00" length="800.00" shape="814.65,3998.35 1585.35,3998.35"/>
    </edge>
    <edge id="1/5to0/5" from="1/5" to="0/5" priority="-1">
        <lane id="1/5to0/5_0" index="0" speed="15.00" length="800.00" shape="785.35,5011.55 13.15,5011.55"/>
        <lane id="1/5to0/5_1" index="1" speed="15.00" length="800.00" shape="785.35,5008.25 13.15,5008.25"/>
        <lane id="1/5to0/5_2" index="2" speed="15.00" length="800.00" shape="785.35,5004.95 13.15,5004.95"/>
        <lane id="1/5to0/5_3" index="3" speed="15.00" length="800.00" shape="785.35,5001.65 13.15,5001.65"/>
    </edge>
    <edge id="1/5to1/4" from="1/5" to="1/4" priority="-1">
        <lane id="1/5to1/4_0" index="0" speed="15.00" length="1000.00" shape="788.45,4985.35 788.45,4014.65"/>
        <lane id="1/5to1/4_1" index="1" speed="15.00" length="1000.00" shape="791.75,4985.35 791.75,4014.65"/>
        <lane id="1/5to1/4_2" index="2" speed="15.00" length="1000.00" shape="795.05,4985.35 795.05,4014.65"/>
        <lane id="1/5to1/4_3" index="3" speed="15.00" length="1000.00" shape="798.35,4985.35 798.35,4014.65"/>
    </edge>
    <edge id="1/5to2/5" from="1/5" to="2/5" priority="-1">
        <lane id="1/5to2/5_0" index="0" speed="15.00" length="800.00" shape="814.65,4988.45 1585.35,4988.45"/>
        <lane id="1/5to2/5_1" index="1" speed="15.00" length="800.00" shape="814.65,4991.75 1585.35,4991.75"/>
        <lane id="1/5to2/5_2" index="2" speed="15.00" length="800.00" shape="814.65,4995.05 1585.35,4995.05"/>
        <lane id="1/5to2/5_3" index="3" speed="15.00" length="800.00" shape="814.65,4998.35 1585.35,4998.35"/>
    </edge>
    <edge id="2/0to1/0" from="2/0" to="1/0" priority="-1">
        <lane id="2/0to1/0_0" index="0" speed="15.00" length="800.00" shape="1585.35,11.55 814.65,11.55"/>
        <lane id="2/0to1/0_1" index="1" speed="15.00" length="800.00" shape="1585.35,8.25 814.65,8.25"/>
        <lane id="2/0to1/0_2" index="2" speed="15.00" length="800.00" shape="1585.35,4.95 814.65,4.95"/>
        <lane id="2/0to1/0_3" index="3" speed="15.00" length="800.00" shape="1585.35,1.65 814.65,1.65"/>
    </edge>
    <edge id="2/0to2/1" from="2/0" to="2/1" priority="-1">
        <lane id="2/0to2/1_0" index="0" speed="15.00" length="1000.00" shape="1611.55,14.65 1611.55,985.35"/>
        <lane id="2/0to2/1_1" index="1" speed="15.00" length="1000.00" shape="1608.25,14.65 1608.25,985.35"/>
        <lane id="2/0to2/1_2" index="2" speed="15.00" length="1000.00" shape="1604.95,14.65 1604.95,985.35"/>
        <lane id="2/0to2/1_3" index="3" speed="15.00" length="1000.00" shape="1601.65,14.65 1601.65,985.35"/>
    </edge>
    <edge id="2/0to3/0" from="2/0" to="3/0" priority="-1">
        <lane id="2/0to3/0_0" index="0" speed="15.00" length="800.00" shape="1614.65,-11.55 2385.35,-11.55"/>
        <lane id="2/0to3/0_1" index="1" speed="15.00" length="800.00" shape="1614.65,-8.25 2385.35,-8.25"/>
        <lane id="2/0to3/0_2" index="2" speed="15.00" length="800.00" shape="1614.65,-4.95 2385.35,-4.95"/>
        <lane id="2/0to3/0_3" index="3" speed="15.00" length="800.00" shape="1614.65,-1.65 2385.35,-1.65"/>
    </edge>
    <edge id="2/1to1/1" from="2/1" to="1/1" priority="-1">
        <lane id="2/1to1/1_0" index="0" speed="15.00" length="800.00" shape="1585.35,1011.55 814.65,1011.55"/>
        <lane id="2/1to1/1_1" index="1" speed="15.00" length="800.00" shape="1585.35,1008.25 814.65,1008.25"/>
        <lane id="2/1to1/1_2" index="2" speed="15.00" length="800.00" shape="1585.35,1004.95 814.65,1004.95"/>
        <lane id="2/1to1/1_3" index="3" speed="15.00" length="800.00" shape="1585.35,1001.65 814.65,1001.65"/>
    </edge>
    <edge id="2/1to2/0" from="2/1" to="2/0" priority="-1">
        <lane id="2/1to2/0_0" index="0" speed="15.00" length="1000.00" shape="1588.45,985.35 1588.45,14.65"/>
        <lane id="2/1to2/0_1" index="1" speed="15.00" length="1000.00" shape="1591.75,985.35 1591.75,14.65"/>
        <lane id="2/1to2/0_2" index="2" speed="15.00" length="1000.00" shape="1595.05,985.35 1595.05,14.65"/>
        <lane id="2/1to2/0_3" index="3" speed="15.00" length="1000.00" shape="1598.35,985.35 1598.35,14.65"/>
    </edge>
    <edge id="2/1to2/2" from="2/1" to="2/2" priority="-1">
        <lane id="2/1to2/2_0" index="0" speed="15.00" length="1000.00" shape="1611.55,1014.65 1611.55,1985.35"/>
        <lane id="2/1to2/2_1" index="1" speed="15.00" length="1000.00" shape="1608.25,1014.65 1608.25,1985.35"/>
        <lane id="2/1to2/2_2" index="2" speed="15.00" length="1000.00" shape="1604.95,1014.65 1604.95,1985.35"/>
        <lane id="2/1to2/2_3" index="3" speed="15.00" length="1000.00" shape="1601.65,1014.65 1601.65,1985.35"/>
    </edge>
    <edge id="2/1to3/1" from="2/1" to="3/1" priority="-1">
        <lane id="2/1to3/1_0" index="0" speed="15.00" length="800.00" shape="1614.65,988.45 2385.35,988.45"/>
        <lane id="2/1to3/1_1" index="1" speed="15.00" length="800.00" shape="1614.65,991.75 2385.35,991.75"/>
        <lane id="2/1to3/1_2" index="2" speed="15.00" length="800.00" shape="1614.65,995.05 2385.35,995.05"/>
        <lane id="2/1to3/1_3" index="3" speed="15.00" length="800.00" shape="1614.65,998.35 2385.35,998.35"/>
    </edge>
    <edge id="2/2to1/2" from="2/2" to="1/2" priority="-1">
        <lane id="2/2to1/2_0" index="0" speed="15.00" length="800.00" shape="1585.35,2011.55 814.65,2011.55"/>
        <lane id="2/2to1/2_1" index="1" speed="15.00" length="800.00" shape="1585.35,2008.25 814.65,2008.25"/>
        <lane id="2/2to1/2_2" index="2" speed="15.00" length="800.00" shape="1585.35,2004.95 814.65,2004.95"/>
        <lane id="2/2to1/2_3" index="3" speed="15.00" length="800.00" shape="1585.35,2001.65 814.65,2001.65"/>
    </edge>
    <edge id="2/2to2/1" from="2/2" to="2/1" priority="-1">
        <lane id="2/2to2/1_0" index="0" speed="15.00" length="1000.00" shape="1588.45,1985.35 1588.45,1014.65"/>
        <lane id="2/2to2/1_1" index="1" speed="15.00" length="1000.00" shape="1591.75,1985.35 1591.75,1014.65"/>
        <lane id="2/2to2/1_2" index="2" speed="15.00" length="1000.00" shape="1595.05,1985.35 1595.05,1014.65"/>
        <lane id="2/2to2/1_3" index="3" speed="15.00" length="1000.00" shape="1598.35,1985.35 1598.35,1014.65"/>
    </edge>
    <edge id="2/2to2/3" from="2/2" to="2/3" priority="-1">
        <lane id="2/2to2/3_0" index="0" speed="15.00" length="1000.00" shape="1611.55,2014.65 1611.55,2985.35"/>
        <lane id="2/2to2/3_1" index="1" speed="15.00" length="1000.00" shape="1608.25,2014.65 1608.25,2985.35"/>
        <lane id="2/2to2/3_2" index="2" speed="15.00" length="1000.00" shape="1604.95,2014.65 1604.95,2985.35"/>
        <lane id="2/2to2/3_3" index="3" speed="15.00" length="1000.00" shape="1601.65,2014.65 1601.65,2985.35"/>
    </edge>
    <edge id="2/2to3/2" from="2/2" to="3/2" priority="-1">
        <lane id="2/2to3/2_0" index="0" speed="15.00" length="800.00" shape="1614.65,1988.45 2385.35,1988.45"/>
        <lane id="2/2to3/2_1" index="1" speed="15.00" length="800.00" shape="1614.65,1991.75 2385.35,1991.75"/>
        <lane id="2/2to3/2_2" index="2" speed="15.00" length="800.00" shape="1614.65,1995.05 2385.35,1995.05"/>
        <lane id="2/2to3/2_3" index="3" speed="15.00" length="800.00" shape="1614.65,1998.35 2385.35,1998.35"/>
    </edge>
    <edge id="2/3to1/3" from="2/3" to="1/3" priority="-1">
        <lane id="2/3to1/3_0" index="0" speed="15.00" length="800.00" shape="1585.35,3011.55 814.65,3011.55"/>
        <lane id="2/3to1/3_1" index="1" speed="15.00" length="800.00" shape="1585.35,3008.25 814.65,3008.25"/>
        <lane id="2/3to1/3_2" index="2" speed="15.00" length="800.00" shape="1585.35,3004.95 814.65,3004.95"/>
        <lane id="2/3to1/3_3" index="3" speed="15.00" length="800.00" shape="1585.35,3001.65 814.65,3001.65"/>
    </edge>
    <edge id="2/3to2/2" from="2/3" to="2/2" priority="-1">
        <lane id="2/3to2/2_0" index="0" speed="15.00" length="1000.00" shape="1588.45,2985.35 1588.45,2014.65"/>
        <lane id="2/3to2/2_1" index="1" speed="15.00" length="1000.00" shape="1591.75,2985.35 1591.75,2014.65"/>
        <lane id="2/3to2/2_2" index="2" speed="15.00" length="1000.00" shape="1595.05,2985.35 1595.05,2014.65"/>
        <lane id="2/3to2/2_3" index="3" speed="15.00" length="1000.00" shape="1598.35,2985.35 1598.35,2014.65"/>
    </edge>
    <edge id="2/3to2/4" from="2/3" to="2/4" priority="-1">
        <lane id="2/3to2/4_0" index="0" speed="15.00" length="1000.00" shape="1611.55,3014.65 1611.55,3985.35"/>
        <lane id="2/3to2/4_1" index="1" speed="15.00" length="1000.00" shape="1608.25,3014.65 1608.25,3985.35"/>
        <lane id="2/3to2/4_2" index="2" speed="15.00" length="1000.00" shape="1604.95,3014.65 1604.95,3985.35"/>
        <lane id="2/3to2/4_3" index="3" speed="15.00" length="1000.00" shape="1601.65,3014.65 1601.65,3985.35"/>
    </edge>
    <edge id="2/3to3/3" from="2/3" to="3/3" priority="-1">
        <lane id="2/3to3/3_0" index="0" speed="15.00" length="800.00" shape="1614.65,2988.45 2385.35,2988.45"/>
        <lane id="2/3to3/3_1" index="1" speed="15.00" length="800.00" shape="1614.65,2991.75 2385.35,2991.75"/>
        <lane id="2/3to3/3_2" index="2" speed="15.00" length="800.00" shape="1614.65,2995.05 2385.35,2995.05"/>
        <lane id="2/3to3/3_3" index="3" speed="15.00" length="800.00" shape="1614.65,2998.35 2385.35,2998.35"/>
    </edge>
    <edge id="2/4to1/4" from="2/4" to="1/4" priority="-1">
        <lane id="2/4to1/4_0" index="0" speed="15.00" length="800.00" shape="1585.35,4011.55 814.65,4011.55"/>
        <lane id="2/4to1/4_1" index="1" speed="15.00" length="800.00" shape="1585.35,4008.25 814.65,4008.25"/>
        <lane id="2/4to1/4_2" index="2" speed="15.00" length="800.00" shape="1585.35,4004.95 814.65,4004.95"/>
        <lane id="2/4to1/4_3" index="3" speed="15.00" length="800.00" shape="1585.35,4001.65 814.65,4001.65"/>
    </edge>
    <edge id="2/4to2/3" from="2/4" to="2/3" priority="-1">
        <lane id="2/4to2/3_0" index="0" speed="15.00" length="1000.00" shape="1588.45,3985.35 1588.45,3014.65"/>
        <lane id="2/4to2/3_1" index="1" speed="15.00" length="1000.00" shape="1591.75,3985.35 1591.75,3014.65"/>
        <lane id="2/4to2/3_2" index="2" speed="15.00" length="1000.00" shape="1595.05,3985.35 1595.05,3014.65"/>
        <lane id="2/4to2/3_3" index="3" speed="15.00" length="1000.00" shape="1598.35,3985.35 1598.35,3014.65"/>
    </edge>
    <edge id="2/4to2/5" from="2/4" to="2/5" priority="-1">
        <lane id="2/4to2/5_0" index="0" speed="15.00" length="1000.00" shape="1611.55,4014.65 1611.55,4985.35"/>
        <lane id="2/4to2/5_1" index="1" speed="15.00" length="1000.00" shape="1608.25,4014.65 1608.25,4985.35"/>
        <lane id="2/4to2/5_2" index="2" speed="15.00" length="1000.00" shape="1604.95,4014.65 1604.95,4985.35"/>
        <lane id="2/4to2/5_3" index="3" speed="15.00" length="1000.00" shape="1601.65,4014.65 1601.65,4985.35"/>
    </edge>
    <edge id="2/4to3/4" from="2/4" to="3/4" priority="-1">
        <lane id="2/4to3/4_0" index="0" speed="15.00" length="800.00" shape="1614.65,3988.45 2385.35,3988.45"/>
        <lane id="2/4to3/4_1" index="1" speed="15.00" length="800.00" shape="1614.65,3991.75 2385.35,3991.75"/>