<?xml version="1.0" encoding="UTF-8"?>

<!-- generated on 01/17/19 14:58:24 by SUMO netconvert Version 0.24.0
<?xml version="1.0" encoding="UTF-8"?>

<configuration xmlns:xsi="http://www.w3.org/2001/XMLSchema-instance" xsi:noNamespaceSchemaLocation="http://sumo.dlr.de/xsd/netconvertConfiguration.xsd">

    <input>
        <type-files value="F:\Tools\sumo-0.24.0/data/typemap/osmNetconvert.typ.xml"/>
        <osm-files value="target.osm"/>
    </input>

    <output>
        <output-file value="input_net.net.xml"/>
    </output>

    <projection>
        <proj.utm value="true"/>
    </projection>

    <edge_removal>
        <keep-edges.min-speed value="10"/>
    </edge_removal>

    <processing>
        <no-internal-links value="true"/>
        <junctions.join value="true"/>
    </processing>

</configuration>
-->

<net version="0.13" xmlns:xsi="http://www.w3.org/2001/XMLSchema-instance" xsi:noNamespaceSchemaLocation="http://sumo.dlr.de/xsd/net_file.xsd">

    <location netOffset="-742620.63,-2547751.91" convBoundary="0.00,0.00,5186.35,10513.70" origBoundary="113.342934,23.019775,113.418784,23.115185" projParameter="+proj=utm +zone=49 +ellps=WGS84 +datum=WGS84 +units=m +no_defs"/>

    <type id="highway.bridleway" priority="1" numLanes="1" speed="2.78" allow="pedestrian" oneway="1" width="2.00"/>
    <type id="highway.bus_guideway" priority="1" numLanes="1" speed="8.33" allow="bus" oneway="1"/>
    <type id="highway.cycleway" priority="1" numLanes="1" speed="5.56" allow="bicycle" oneway="0" width="1.00"/>
    <type id="highway.footway" priority="1" numLanes="1" speed="8.33" allow="pedestrian" oneway="1" width="2.00"/>
    <type id="highway.ford" priority="1" numLanes="1" speed="2.78" allow="army" oneway="0"/>
    <type id="highway.living_street" priority="3" numLanes="1" speed="2.78" disallow="tram rail_urban rail rail_electric ship" oneway="0"/>
    <type id="highway.motorway" priority="13" numLanes="2" speed="44.44" allow="private emergency authority army vip passenger hov taxi bus coach delivery truck trailer motorcycle evehicle custom1 custom2" oneway="1"/>
    <type id="highway.motorway_link" priority="12" numLanes="1" speed="22.22" allow="private emergency authority army vip passenger hov taxi bus coach delivery truck trailer motorcycle evehicle custom1 custom2" oneway="1"/>
    <type id="highway.path" priority="1" numLanes="1" speed="2.78" allow="bicycle pedestrian" oneway="1" width="2.00"/>
    <type id="highway.pedestrian" priority="1" numLanes="1" speed="8.33" allow="pedestrian" oneway="1" width="2.00"/>
    <type id="highway.primary" priority="9" numLanes="2" speed="27.78" disallow="tram rail_urban rail rail_electric ship" oneway="0"/>
    <type id="highway.primary_link" priority="8" numLanes="1" speed="22.22" disallow="tram rail_urban rail rail_electric ship" oneway="0"/>
    <type id="highway.raceway" priority="14" numLanes="2" speed="83.33" allow="vip" oneway="0"/>
    <type id="highway.residential" priority="4" numLanes="1" speed="13.89" disallow="tram rail_urban rail rail_electric ship" oneway="0"/>
    <type id="highway.secondary" priority="7" numLanes="2" speed="27.78" disallow="tram rail_urban rail rail_electric ship" oneway="0"/>
    <type id="highway.secondary_link" priority="6" numLanes="1" speed="22.22" disallow="tram rail_urban rail rail_electric ship" oneway="0"/>
    <type id="highway.service" priority="2" numLanes="1" speed="5.56" allow="delivery bicycle pedestrian" oneway="0"/>
    <type id="highway.services" priority="1" numLanes="1" speed="8.33" disallow="tram rail_urban rail rail_electric ship" oneway="0"/>
    <type id="highway.stairs" priority="1" numLanes="1" speed="1.39" allow="pedestrian" oneway="1" width="2.00"/>
    <type id="highway.step" priority="1" numLanes="1" speed="1.39" allow="pedestrian" oneway="1" width="2.00"/>
    <type id="highway.steps" priority="1" numLanes="1" speed="1.39" allow="pedestrian" oneway="1" width="2.00"/>
    <type id="highway.tertiary" priority="6" numLanes="1" speed="22.22" disallow="tram rail_urban rail rail_electric ship" oneway="0"/>
    <type id="highway.tertiary_link" priority="5" numLanes="1" speed="22.22" disallow="tram rail_urban rail rail_electric ship" oneway="0"/>
    <type id="highway.track" priority="1" numLanes="1" speed="5.56" disallow="tram rail_urban rail rail_electric ship" oneway="0"/>
    <type id="highway.trunk" priority="11" numLanes="2" speed="27.78" disallow="tram rail_urban rail rail_electric bicycle pedestrian ship" oneway="0"/>
    <type id="highway.trunk_link" priority="10" numLanes="1" speed="22.22" disallow="tram rail_urban rail rail_electric bicycle pedestrian ship" oneway="0"/>
    <type id="highway.unclassified" priority="5" numLanes="1" speed="13.89" disallow="tram rail_urban rail rail_electric ship" oneway="0"/>
    <type id="highway.unsurfaced" priority="1" numLanes="1" speed="8.33" disallow="tram rail_urban rail rail_electric ship" oneway="0"/>
    <type id="railway.light_rail" priority="15" numLanes="1" speed="27.78" allow="rail_urban" oneway="1"/>
    <type id="railway.preserved" priority="15" numLanes="1" speed="27.78" allow="rail" oneway="1"/>
    <type id="railway.rail" priority="15" numLanes="1" speed="83.33" allow="rail rail_electric" oneway="1"/>
    <type id="railway.subway" priority="15" numLanes="1" speed="27.78" allow="rail_urban" oneway="1"/>
    <type id="railway.tram" priority="15" numLanes="1" speed="13.89" allow="tram" oneway="1"/>

    <edge id="-112/0" from="8950" to="2764" priority="4" type="highway.residential" shape="1830.20,4802.86 1830.10,4804.04 1801.63,5113.67">
        <lane id="-112/0_0" index="0" disallow="tram rail_urban rail rail_electric ship" speed="13.89" length="312.12" shape="1831.84,4803.01 1831.74,4804.18 1803.81,5107.98"/>
    </edge>
    <edge id="-112/1" from="8908" to="8950" priority="4" type="highway.residential">
        <lane id="-112/1_0" index="0" disallow="tram rail_urban rail rail_electric ship" speed="13.89" length="6.84" shape="1832.40,4796.18 1831.84,4803.00"/>
    </edge>
    <edge id="-112/2" from="8872" to="8908" priority="4" type="highway.residential">
        <lane id="-112/2_0" index="0" disallow="tram rail_urban rail rail_electric ship" speed="13.89" length="3.89" shape="1832.71,4792.47 1832.40,4796.18"/>
    </edge>
    <edge id="-112/3" from="1493" to="8872" priority="4" type="highway.residential" shape="1841.34,4736.66 1837.35,4758.23 1831.08,4792.18">
        <lane id="-112/3_0" index="0" disallow="tram rail_urban rail rail_electric ship" speed="13.89" length="56.46" shape="1842.07,4741.74 1838.98,4758.53 1832.73,4792.31"/>
    </edge>
    <edge id="-117/0" from="2293" to="1517" priority="4" type="highway.residential">
        <lane id="-117/0_0" index="0" disallow="tram rail_urban rail rail_electric ship" speed="13.89" length="181.80" shape="2006.60,4577.47 1989.51,4753.39"/>
    </edge>
    <edge id="-117/1" from="1058" to="2293" priority="4" type="highway.residential">
        <lane id="-117/1_0" index="0" disallow="tram rail_urban rail rail_electric ship" speed="13.89" length="129.34" shape="2019.65,4453.64 2006.60,4577.48"/>
    </edge>
    <edge id="-122/0" from="1015" to="6443" priority="4" type="highway.residential" shape="1513.86,3653.52 1500.21,3672.12 1496.45,3686.59 1518.64,3717.80 1525.20,3735.20">
        <lane id="-122/0_0" index="0" disallow="tram rail_urban rail rail_electric ship" speed="13.89" length="94.92" shape="1512.94,3657.57 1501.73,3672.84 1498.24,3686.26 1520.11,3717.02 1526.74,3734.62"/>
    </edge>
    <edge id="-122/1" from="2312" to="1015" priority="4" type="highway.residential" shape="1649.30,3619.14 1626.56,3601.43 1603.76,3604.86 1553.70,3622.79 1513.86,3653.52">
        <lane id="-122/1_0" index="0" disallow="tram rail_urban rail rail_electric ship" speed="13.89" length="155.37" shape="1648.29,3620.44 1626.11,3603.17 1604.16,3606.46 1554.50,3624.25 1518.77,3651.81"/>
    </edge>
    <edge id="-123" from="2388" to="2313" priority="5" type="highway.unclassified">
        <lane id="-123_0" index="0" disallow="tram rail_urban rail rail_electric ship" speed="13.89" length="117.09" shape="866.15,4592.46 786.23,4513.53"/>
    </edge>
    <edge id="-124" from="6854" to="7788" priority="6" type="highway.tertiary">
        <lane id="-124_0" index="0" disallow="tram rail_urban rail rail_electric ship" speed="22.22" length="20.09" shape="957.89,4981.90 950.76,4989.08"/>
    </edge>
    <edge id="-125/0" from="cluster_7046_7076" to="7048" priority="4" type="highway.residential" shape="1208.87,4918.18 1109.63,4823.29">
        <lane id="-125/0_0" index="0" disallow="tram rail_urban rail rail_electric ship" speed="13.89" length="141.08" shape="1204.26,4916.06 1111.99,4827.83"/>
    </edge>
    <edge id="-127" from="2451" to="2318" priority="6" type="highway.tertiary" shape="1274.31,4656.26 1389.44,4529.87 1448.09,4473.96">
        <lane id="-127_0" index="0" disallow="tram rail_urban rail rail_electric ship" speed="22.22" length="252.00" shape="1276.35,4651.56 1388.22,4528.76 1441.20,4478.25"/>
    </edge>
    <edge id="-13/0" from="1100" to="1239" priority="5" type="highway.unclassified" shape="2492.48,3474.60 2401.39,3474.93 2355.12,3474.07 2323.61,3468.35 2295.79,3456.68 2276.55,3442.94 2260.79,3425.00 2244.90,3400.36 2238.86,3379.80 2234.90,3351.06 2238.11,3234.40 2238.81,3225.39">
        <lane id="-13/0_0" index="0" disallow="tram rail_urban rail rail_electric ship" speed="13.89" length="452.59" shape="2491.89,3476.25 2401.39,3476.58 2355.09,3475.72 2323.14,3469.94 2294.98,3458.13 2275.43,3444.17 2259.55,3426.09 2243.39,3401.06 2237.28,3380.27 2233.27,3351.29 2236.46,3234.35 2236.96,3227.87"/>
    </edge>
    <edge id="-13/1" from="1367" to="1100" priority="5" type="highway.unclassified" shape="2596.62,3611.92 2581.46,3565.04 2564.36,3534.69 2553.00,3516.79 2537.42,3501.05 2517.40,3484.04 2492.48,3474.60">
        <lane id="-13/1_0" index="0" disallow="tram rail_urban rail rail_electric ship" speed="13.89" length="180.37" shape="2593.56,3607.82 2579.94,3565.70 2562.92,3535.50 2551.70,3517.82 2536.25,3502.21 2516.55,3485.48 2492.46,3476.36"/>
    </edge>
    <edge id="-13/10" from="1232" to="1196" priority="5" type="highway.unclassified" shape="1900.48,3252.60 1884.78,3303.85 1878.43,3346.30 1877.77,3368.57 1876.58,3402.29 1873.73,3430.58 1866.43,3456.46 1856.26,3480.64 1787.90,3591.69">
        <lane id="-13/10_0" index="0" disallow="tram rail_urban rail rail_electric ship" speed="13.89" length="364.51" shape="1900.90,3256.84 1886.36,3304.33 1880.06,3346.55 1879.42,3368.62 1878.23,3402.35 1875.38,3430.74 1868.02,3456.91 1857.78,3481.28 1792.08,3588.05"/>
    </edge>
    <edge id="-13/11" from="1236" to="1232" priority="5" type="highway.unclassified" shape="2225.44,3211.68 2212.78,3211.28 1940.70,3207.26 1926.19,3209.27 1918.80,3216.50 1900.48,3252.60">
        <lane id="-13/11_0" index="0" disallow="tram rail_urban rail rail_electric ship" speed="13.89" length="350.24" shape="2222.87,3213.25 2212.73,3212.93 1940.68,3208.91 1926.96,3210.83 1920.15,3217.49 1904.28,3248.76"/>
    </edge>
    <edge id="-13/2" from="2188" to="1367" priority="5" type="highway.unclassified" shape="2579.59,3768.92 2585.64,3746.68 2594.96,3714.57 2599.54,3669.79 2599.01,3635.34 2596.62,3611.92">
        <lane id="-13/2_0" index="0" disallow="tram rail_urban rail rail_electric ship" speed="13.89" length="159.49" shape="2579.57,3762.69 2584.05,3746.25 2593.34,3714.25 2597.90,3669.63 2597.36,3635.36 2595.53,3617.47"/>
    </edge>
    <edge id="-13/3" from="1368" to="2188" priority="5" type="highway.unclassified" shape="2462.85,3889.60 2502.16,3873.29 2542.78,3844.97 2558.51,3824.45 2569.29,3804.94 2573.94,3789.69 2579.59,3768.92">
        <lane id="-13/3_0" index="0" disallow="tram rail_urban rail rail_electric ship" speed="13.89" length="177.69" shape="2467.13,3886.04 2501.36,3871.83 2541.62,3843.76 2557.20,3823.45 2567.76,3804.29 2572.36,3789.21 2576.37,3774.46"/>
    </edge>
    <edge id="-13/4" from="1231" to="1368" priority="5" type="highway.unclassified" shape="2236.58,4071.07 2250.77,4044.16 2269.01,4005.08 2307.65,3962.51 2344.86,3940.69 2425.76,3903.76 2462.85,3889.60">
        <lane id="-13/4_0" index="0" disallow="tram rail_urban rail rail_electric ship" speed="13.89" length="302.81" shape="2238.48,4063.91 2249.31,4043.39 2267.62,4004.15 2306.60,3961.21 2344.02,3939.27 2425.08,3902.26 2458.20,3889.61"/>
    </edge>
    <edge id="-13/5" from="1263" to="1231" priority="5" type="highway.unclassified" shape="2028.98,4004.98 2065.30,3997.37 2095.68,3987.63 2114.34,3983.75 2145.93,3987.05 2167.33,3994.01 2192.35,4007.57 2205.89,4020.51 2220.83,4045.28 2236.58,4071.07">
        <lane id="-13/5_0" index="0" disallow="tram rail_urban rail rail_electric ship" speed="13.89" length="248.67" shape="2028.79,4003.33 2064.96,3995.76 2095.18,3986.06 2114.26,3982.08 2146.27,3985.42 2167.98,3992.49 2193.33,4006.23 2207.18,4019.47 2222.24,4044.42 2234.22,4064.05"/>
    </edge>
    <edge id="-13/6" from="2301" to="1263" priority="5" type="highway.unclassified" shape="1959.97,4006.94 1975.26,4007.94 2000.28,4008.21 2028.98,4004.98">
        <lane id="-13/6_0" index="0" disallow="tram rail_urban rail rail_electric ship" speed="13.89" length="69.23" shape="1960.07,4005.30 1975.37,4006.29 2000.30,4006.56 2028.64,4003.36"/>
    </edge>
    <edge id="-13/7" from="1208" to="2301" priority="5" type="highway.unclassified" shape="1833.03,3964.26 1857.14,3977.65 1892.90,3994.02 1922.19,4002.15 1952.15,4006.44 1959.97,4006.94">
        <lane id="-13/7_0" index="0" disallow="tram rail_urban rail rail_electric ship" speed="13.89" length="135.40" shape="1834.04,3962.94 1857.94,3976.21 1893.59,3992.52 1922.63,4000.56 1952.39,4004.81 1960.07,4005.30"/>
    </edge>
    <edge id="-13/8" from="9467" to="1208" priority="5" type="highway.unclassified" shape="1790.67,3838.87 1792.10,3846.84 1791.91,3861.63 1791.71,3878.63 1791.34,3909.80 1797.67,3929.84 1810.38,3946.70 1833.03,3964.26">
        <lane id="-13/8_0" index="0" disallow="tram rail_urban rail rail_electric ship" speed="13.89" length="141.85" shape="1792.29,3838.58 1793.75,3846.70 1793.55,3861.65 1793.36,3878.65 1793.00,3909.56 1799.16,3929.07 1811.56,3945.53 1833.84,3962.81"/>
    </edge>
    <edge id="-13/9" from="1196" to="9467" priority="5" type="highway.unclassified" shape="1787.90,3591.69 1776.57,3622.19 1767.68,3650.67 1757.54,3684.42 1753.96,3724.40 1760.27,3761.25 1770.37,3787.81 1780.25,3805.41 1788.51,3826.93 1790.67,3838.87">
        <lane id="-13/9_0" index="0" disallow="tram rail_urban rail rail_electric ship" speed="13.89" length="258.92" shape="1788.13,3595.81 1778.11,3622.76 1769.26,3651.16 1759.16,3684.74 1755.62,3724.33 1761.87,3760.81 1771.91,3787.22 1781.69,3804.60 1790.11,3826.48 1792.29,3838.58"/>
    </edge>
    <edge id="-130/1" from="2323" to="cluster_2322_8078" priority="6" type="highway.tertiary" shape="1047.80,4433.56 1069.19,4412.17 1103.69,4378.75 1130.99,4352.54 1160.93,4322.63 1179.78,4302.70 1199.37,4281.62 1220.29,4259.75">
        <lane id="-130/1_0" index="0" disallow="tram rail_urban rail rail_electric ship" speed="22.22" length="248.62" shape="1050.08,4428.95 1068.03,4411.00 1102.55,4377.56 1129.85,4351.35 1159.77,4321.46 1178.58,4301.56 1198.16,4280.50 1215.79,4262.06"/>
    </edge>
    <edge id="-132" from="2325" to="2324" priority="5" type="highway.unclassified">
        <lane id="-132_0" index="0" disallow="tram rail_urban rail rail_electric ship" speed="13.89" length="112.61" shape="1003.89,4677.09 1050.88,4779.43"/>
    </edge>
    <edge id="-205/0" from="2188" to="2187" priority="4" type="highway.residential">
        <lane id="-205/0_0" index="0" disallow="tram rail_urban rail rail_electric ship" speed="13.89" length="60.80" shape="2573.67,3766.96 2531.39,3738.80"/>
    </edge>
    <edge id="-205/1" from="cluster_8006_8008_8009" to="2188" priority="4" type="highway.residential" shape="2642.44,3814.29 2579.59,3768.92">
        <lane id="-205/1_0" index="0" disallow="tram rail_urban rail rail_electric ship" speed="13.89" length="83.31" shape="2637.00,3812.40 2583.64,3773.88"/>
    </edge>
    <edge id="-29/1" from="1838" to="cluster_1761_1766" priority="6" type="highway.tertiary" shape="2549.27,2877.71 2538.22,2867.99 2462.64,2792.75 2452.16,2782.08">
        <lane id="-29/1_0" index="0" disallow="tram rail_urban rail rail_electric ship" speed="22.22" length="139.76" shape="2544.56,2875.76 2537.13,2869.23 2461.48,2793.92 2454.38,2786.69"/>
    </edge>
    <edge id="-29/2" from="1812" to="1838" priority="6" type="highway.tertiary" shape="2649.11,2973.57 2637.87,2963.42 2560.37,2888.15 2549.27,2877.71">
        <lane id="-29/2_0" index="0" disallow="tram rail_urban rail rail_electric ship" speed="22.22" length="138.42" shape="2644.39,2971.53 2636.77,2964.65 2559.22,2889.34 2551.62,2882.19"/>
    </edge>
    <edge id="-29/3" from="1917" to="1812" priority="6" type="highway.tertiary">
        <lane id="-29/3_0" index="0" disallow="tram rail_urban rail rail_electric ship" speed="22.22" length="38.71" shape="2672.47,2998.22 2651.41,2978.06"/>
    </edge>
    <edge id="-29/4" from="1691" to="1917" priority="6" type="highway.tertiary" shape="2777.74,3097.65 2767.30,3087.77 2688.78,3012.11 2677.06,3000.34">
        <lane id="-29/4_0" index="0" disallow="tram rail_urban rail rail_electric ship" speed="22.22" length="140.02" shape="2773.12,3095.55 2766.17,3088.97 2687.63,3013.30 2679.28,3004.90"/>
    </edge>
    <edge id="-29/5" from="1910" to="1691" priority="6" type="highway.tertiary" shape="2880.25,3196.32 2866.05,3182.48 2788.88,3108.20 2777.74,3097.65">
        <lane id="-29/5_0" index="0" disallow="tram rail_urban rail rail_electric ship" speed="22.22" length="142.28" shape="2875.61,3194.11 2864.90,3183.66 2787.73,3109.39 2780.02,3102.08"/>
    </edge>
    <edge id="-290/0" from="1367" to="2184" priority="4" type="highway.residential">
        <lane id="-290/0_0" index="0" disallow="tram rail_urban rail rail_electric ship" speed="13.89" length="75.77" shape="2591.90,3615.03 2529.89,3633.23"/>
    </edge>
    <edge id="-290/1" from="cluster_4246_7970" to="1367" priority="4" type="highway.residential" shape="2713.05,3579.41 2596.62,3611.92">
        <lane id="-290/1_0" index="0" disallow="tram rail_urban rail rail_electric ship" speed="13.89" length="124.66" shape="2708.62,3582.36 2601.52,3612.27"/>
    </edge>
    <edge id="-30/0" from="1838" to="1622" priority="6" type="highway.tertiary" shape="2549.27,2877.71 2559.34,2866.81 2647.46,2775.81 2663.96,2759.65">
        <lane id="-30/0_0" index="0" disallow="tram rail_urban rail rail_electric ship" speed="22.22" length="164.61" shape="2551.26,2873.12 2558.13,2865.69 2646.27,2774.66 2658.93,2762.27"/>
    </edge>
    <edge id="-30/1" from="cluster_1848_8093" to="1838" priority="6" type="highway.tertiary" shape="2357.56,3081.56 2371.08,3065.44 2455.54,2974.77 2539.46,2888.35 2549.27,2877.71">
        <lane id="-30/1_0" index="0" disallow="tram rail_urban rail rail_electric ship" speed="22.22" length="284.47" shape="2359.41,3076.78 2369.82,3064.37 2454.34,2973.64 2538.27,2887.20 2544.79,2880.14"/>
    </edge>
    <edge id="-32/0" from="3622" to="927" priority="6" type="highway.tertiary" shape="2991.16,4114.58 3002.77,4119.10 3196.33,4194.09 3218.37,4202.20">
        <lane id="-32/0_0" index="0" disallow="tram rail_urban rail rail_electric ship" speed="22.22" length="243.52" shape="2991.76,4113.04 3003.37,4117.57 3196.92,4192.55 3214.33,4198.96"/>
    </edge>
    <edge id="-32/1" from="cluster_1915_7948" to="3622" priority="6" type="highway.tertiary" shape="2551.58,3880.20 2555.71,3885.19 2564.55,3892.62 2718.90,3988.94 2776.13,4020.84 2791.67,4029.51 2864.79,4064.89 2979.28,4109.96 2991.16,4114.58">
        <lane id="-32/1_0" index="0" disallow="tram rail_urban rail rail_electric ship" speed="22.22" length="504.23" shape="2556.33,3883.34 2556.89,3884.02 2565.61,3891.36 2719.78,3987.54 2776.94,4019.40 2792.47,4028.07 2865.51,4063.40 2979.88,4108.43 2991.76,4113.04"/>
    </edge>
    <edge id="-33" from="1691" to="891" priority="4" type="highway.residential" shape="2777.74,3097.65 2786.17,3088.47 2875.94,2997.78 2893.85,2981.57">
        <lane id="-33_0" index="0" disallow="tram rail_urban rail rail_electric ship" speed="13.89" length="164.22" shape="2779.77,3093.00 2784.96,3087.35 2874.77,2996.62 2888.86,2983.86"/>
    </edge>
    <edge id="-38/0" from="1922" to="1579" priority="4" type="highway.residential" shape="1006.18,3730.88 988.12,3737.81 945.15,3748.38 879.44,3750.02">
        <lane id="-38/0_0" index="0" disallow="tram rail_urban rail rail_electric ship" speed="13.89" length="129.33" shape="1006.79,3732.41 988.72,3739.35 945.37,3750.02 884.33,3751.55"/>
    </edge>
    <edge id="-38/1" from="1926" to="1922" priority="4" type="highway.residential" shape="1385.64,3731.13 1334.99,3706.00 1280.33,3687.37 1228.69,3678.23 1182.69,3674.18 1135.61,3680.78 1088.74,3694.18 1048.80,3712.37 1006.18,3730.88">
        <lane id="-38/1_0" index="0" disallow="tram rail_urban rail rail_electric ship" speed="13.89" length="399.55" shape="1380.65,3730.50 1334.25,3707.48 1279.80,3688.93 1228.41,3679.86 1182.74,3675.84 1135.84,3682.42 1089.19,3695.77 1049.49,3713.87 1006.79,3732.41"/>
    </edge>
    <edge id="-491/0" from="cluster_1811_1823" to="6206" priority="4" type="highway.residential" shape="2982.17,3085.87 2993.84,3071.75 3064.22,2996.15">
        <lane id="-491/0_0" index="0" disallow="tram rail_urban rail rail_electric ship" speed="13.89" length="131.77" shape="2984.87,3080.01 2992.56,3070.70 3062.84,2995.21"/>
    </edge>
    <edge id="-491/2" from="1824" to="cluster_1811_1823" priority="4" type="highway.residential" shape="2890.05,3185.55 2955.80,3117.44 2969.54,3101.80">
        <lane id="-491/2_0" index="0" disallow="tram rail_urban rail rail_electric ship" speed="13.89" length="125.64" shape="2888.87,3184.40 2954.61,3116.29 2964.25,3105.32"/>
    </edge>
    <edge id="-491/3" from="1910" to="1824" priority="4" type="highway.residential">
        <lane id="-491/3_0" index="0" disallow="tram rail_urban rail rail_electric ship" speed="13.89" length="14.57" shape="2882.30,3191.61 2888.85,3184.42"/>
    </edge>
    <edge id="-491/4" from="2124" to="1910" priority="4" type="highway.residential" shape="2715.73,3368.09 2802.77,3275.72 2819.27,3258.76 2869.04,3208.71 2880.25,3196.32">
        <lane id="-491/4_0" index="0" disallow="tram rail_urban rail rail_electric ship" speed="13.89" length="237.87" shape="2714.53,3366.96 2801.57,3274.59 2818.09,3257.61 2867.87,3207.55 2875.92,3198.65"/>
    </edge>
    <edge id="-491/5" from="cluster_1764_7978" to="2124" priority="4" type="highway.residential" shape="2660.42,3427.21 2670.68,3415.22 2715.73,3368.09">
        <lane id="-491/5_0" index="0" disallow="tram rail_urban rail rail_electric ship" speed="13.89" length="85.76" shape="2663.30,3421.31 2669.43,3414.14 2714.54,3366.95"/>
    </edge>
    <edge id="-494" from="cluster_7285_8102_8113" to="1196" priority="6" type="highway.tertiary" shape="1682.77,3502.14 1691.48,3509.52 1787.90,3591.69">
        <lane id="-494_0" index="0" disallow="tram rail_urban rail rail_electric ship" speed="22.22" length="144.42" shape="1688.14,3504.53 1692.54,3508.26 1784.94,3587.00"/>
    </edge>
    <edge id="-50/0" from="1968" to="1965" priority="4" type="highway.residential">
        <lane id="-50/0_0" index="0" disallow="tram rail_urban rail rail_electric ship" speed="13.89" length="29.50" shape="843.93,4305.28 861.22,4288.21"/>
    </edge>
    <edge id="-50/1" from="1966" to="1968" priority="4" type="highway.residential">
        <lane id="-50/1_0" index="0" disallow="tram rail_urban rail rail_electric ship" speed="13.89" length="53.38" shape="802.49,4346.71 837.15,4312.01"/>
    </edge>
    <edge id="-51" from="1968" to="1960" priority="5" type="highway.unclassified" shape="841.38,4310.11 811.92,4271.26 837.87,4251.54">
        <lane id="-51_0" index="0" disallow="tram rail_urban rail rail_electric ship" speed="13.89" length="81.35" shape="836.92,4306.96 809.61,4270.95 836.88,4250.23"/>
    </edge>
    <edge id="-523" from="6363" to="6361" priority="4" type="highway.residential" shape="1699.94,4979.39 1709.84,4953.48 1731.44,4948.19 1749.31,4949.79">
        <lane id="-523_0" index="0" disallow="tram rail_urban rail rail_electric ship" speed="13.89" length="67.91" shape="1698.40,4978.80 1708.61,4952.08 1731.32,4946.52 1749.46,4948.15"/>
    </edge>
    <edge id="-524/0" from="9001" to="3311" priority="4" type="highway.residential">
        <lane id="-524/0_0" index="0" disallow="tram rail_urban rail rail_electric ship" speed="13.89" length="26.58" shape="1639.17,4968.01 1658.16,4986.62"/>
    </edge>
    <edge id="-524/1" from="9006" to="9001" priority="4" type="highway.residential">
        <lane id="-524/1_0" index="0" disallow="tram rail_urban rail rail_electric ship" speed="13.89" length="116.83" shape="1555.70,4886.26 1639.17,4968.01"/>
    </edge>
    <edge id="-524/2" from="6364" to="9006" priority="4" type="highway.residential">
        <lane id="-524/2_0" index="0" disallow="tram rail_urban rail rail_electric ship" speed="13.89" length="11.24" shape="1547.67,4878.39 1555.70,4886.26"/>
    </edge>
    <edge id="-542" from="1231" to="cluster_8097_8099_8100" priority="6" type="highway.tertiary" shape="2236.58,4071.07 2258.00,4087.92 2271.76,4096.01 2286.60,4102.50 2304.80,4110.11">
        <lane id="-542_0" index="0" disallow="tram rail_urban rail rail_electric ship" speed="22.22" length="87.10" shape="2240.90,4072.38 2259.02,4086.62 2272.59,4094.59 2287.26,4100.99 2300.24,4106.42"/>
    </edge>
    <edge id="-571/0" from="7048" to="6854" priority="6" type="highway.tertiary" shape="1109.63,4823.29 1074.40,4856.06 1047.91,4882.28 1021.57,4909.38 960.24,4977.20">
        <lane id="-571/0_0" index="0" disallow="tram rail_urban rail rail_electric ship" speed="22.22" length="214.62" shape="1107.42,4827.61 1075.52,4857.27 1049.07,4883.45 1022.76,4910.53 964.77,4974.64"/>
    </edge>
    <edge id="-571/1" from="6855" to="7048" priority="6" type="highway.tertiary">
        <lane id="-571/1_0" index="0" disallow="tram rail_urban rail rail_electric ship" speed="22.22" length="216.68" shape="1260.95,4674.98 1114.22,4821.06"/>
    </edge>
    <edge id="-58/0" from="2007" to="2019" priority="4" type="highway.residential" shape="715.20,3958.85 692.27,3971.11 675.03,3988.45 663.22,4004.28 657.30,4021.31 648.53,4058.63 640.70,4086.87 635.42,4102.64 610.21,4150.22 592.74,4174.23 545.35,4231.48 537.52,4239.89 525.85,4252.45 486.18,4292.77 472.45,4299.32 441.14,4310.92 410.51,4313.10 381.45,4308.20 342.26,4286.79 333.80,4279.88 272.56,4229.98">
        <lane id="-58/0_0" index="0" disallow="tram rail_urban rail rail_electric ship" speed="13.89" length="658.92" shape="715.67,3960.47 693.27,3972.45 676.20,3989.61 664.69,4005.06 658.86,4021.85 650.13,4059.00 642.29,4087.32 636.98,4103.17 611.67,4150.99 594.07,4175.21 546.62,4232.53 538.73,4241.02 527.06,4253.57 487.15,4294.14 473.16,4300.81 441.49,4312.55 410.43,4314.76 380.91,4309.78 341.33,4288.17 332.75,4281.15 271.52,4231.26"/>
    </edge>
    <edge id="-58/1" from="2824" to="2007" priority="4" type="highway.residential" shape="823.30,3749.23 823.80,3780.13 816.81,3853.37 805.92,3895.47 789.66,3920.43 757.55,3945.13 731.10,3954.34 715.20,3958.85">
        <lane id="-58/1_0" index="0" disallow="tram rail_urban rail rail_electric ship" speed="13.89" length="262.80" shape="824.95,3749.20 825.45,3780.10 818.45,3853.53 807.45,3896.14 790.89,3921.57 758.35,3946.60 731.65,3955.89 715.99,3960.34"/>
    </edge>
    <edge id="-58/2" from="1985" to="2824" priority="4" type="highway.residential" shape="816.91,3640.53 822.43,3724.67 823.30,3749.23">
        <lane id="-58/2_0" index="0" disallow="tram rail_urban rail rail_electric ship" speed="13.89" length="108.90" shape="818.56,3640.42 824.08,3724.56 824.95,3749.20"/>
    </edge>
    <edge id="-58/3" from="1988" to="1985" priority="4" type="highway.residential" shape="419.83,3798.76 423.99,3732.00 420.42,3699.74 402.73,3640.09 393.14,3585.06 387.34,3531.53 392.05,3477.31 405.13,3429.62 430.04,3384.10 464.53,3355.70 501.81,3336.56 538.88,3330.44 578.55,3331.67 606.46,3334.48 653.63,3358.78 695.88,3390.09 722.00,3412.84 742.95,3437.79 765.28,3469.22 795.61,3531.47 808.07,3568.36 814.66,3606.25 816.91,3640.53">
        <lane id="-58/3_0" index="0" disallow="tram rail_urban rail rail_electric ship" speed="13.89" length="1011.34" shape="418.21,3798.32 422.34,3731.90 418.80,3700.06 401.15,3640.56 391.52,3585.35 385.68,3531.55 390.42,3477.01 403.59,3429.00 428.75,3383.03 463.62,3354.31 501.28,3334.97 538.77,3328.78 578.60,3330.02 606.94,3332.87 654.39,3357.31 696.86,3388.76 723.08,3411.59 744.21,3436.72 766.63,3468.26 797.10,3530.74 809.63,3567.84 816.29,3605.97 818.56,3640.42"/>
    </edge>
    <edge id="-58/4" from="2035" to="1988" priority="4" type="highway.residential" shape="187.39,4137.97 211.03,4112.16 268.55,4042.78 324.48,3979.92 333.30,3969.38 359.53,3938.03 384.63,3897.37 404.25,3855.98 419.83,3798.76">
        <lane id="-58/4_0" index="0" disallow="tram rail_urban rail rail_electric ship" speed="13.89" length="416.78" shape="186.17,4136.85 209.81,4111.04 267.28,4041.72 323.25,3978.83 332.03,3968.33 358.27,3936.97 383.23,3896.50 402.70,3855.41 418.15,3798.64"/>
    </edge>
    <edge id="-580/0" from="2318" to="6998" priority="7" type="highway.secondary" shape="1448.09,4473.96 1418.50,4440.79 1384.89,4407.86 1354.24,4378.34">
        <lane id="-580/0_0" index="0" disallow="tram rail_urban rail rail_electric ship" speed="27.78" length="134.06" shape="1441.38,4473.87 1414.81,4444.09 1381.42,4411.39 1354.34,4385.30"/>
        <lane id="-580/0_1" index="1" disallow="tram rail_urban rail rail_electric ship" speed="27.78" length="134.06" shape="1443.84,4471.67 1417.27,4441.89 1383.73,4409.04 1356.63,4382.93"/>
    </edge>