<?xml version="1.0"?>
<!-- generated on 2019-01-17 15:01:47.060000 by $Id: randomTrips.py 18756 2015-08-31 19:16:33Z behrisch $
  options: -n input_net.net.xml -e 100 -p 0.15 <doubleminus>trip-attributes=departLane="best"
-->
<trips>
    <trip id="0" depart="0.00" from="-117#0" to="585" departLane="best"/>
    <trip id="1" depart="0.15" from="662#2" to="13#10" departLane="best"/>
    <trip id="2" depart="0.30" from="13#10" to="581#1" departLane="best"/>
    <trip id="3" depart="0.45" from="13#4" to="586#2" departLane="best"/>
    <trip id="4" depart="0.60" from="586#2" to="708#0" departLane="best"/>
    <trip id="5" depart="0.75" from="592#2" to="565#2" departLane="best"/>
    <trip id="6" depart="0.90" from="12#2" to="617#3" departLane="best"/>
    <trip id="7" depart="1.05" from="-13#8" to="575#1" departLane="best"/>
    <trip id="8" depart="1.20" from="580#1" to="-86#2" departLane="best"/>
    <trip id="9" depart="1.35" from="-13#4" to="7#0" departLane="best"/>
    <trip id="10" depart="1.50" from="-92#1" to="768#4" departLane="best"/>
    <trip id="11" depart="1.65" from="703#2" to="8#1" departLane="best"/>
    <trip id="12" depart="1.80" from="-13#10" to="-29#2" departLane="best"/>
    <trip id="13" depart="1.95" from="742" to="670#0" departLane="best"/>
    <trip id="14" depart="2.10" from="678" to="581#1" departLane="best"/>
    <trip id="15" depart="2.25" from="-86#2" to="144#0" departLane="best"/>
    <trip id="16" depart="2.40" from="622" to="701#0" departLane="best"/>
    <trip id="17" depart="2.55" from="647" to="-86#2" departLane="best"/>
    <trip id="18" depart="2.60" from="671#1" to="-491#0" departLane="best"/>
    <trip id="19" depart="2.85" from="650#1" to="654#1" departLane="best"/>
    <trip id="20" depart="3.00" from="624#3" to="13#10" departLane="best"/>
	<trip id="21" depart="3.15" from="575#3" to="679" departLane="best"/>
    <trip id="22" depart="3.30" from="619#0" to="627#0" departLane="best"/>
    <trip id="23" depart="3.45" from="-13#2" to="-13#1" departLane="best"/>
    <trip id="24" depart="3.60" from="-580#1" to="290#1" departLane="best"/>
    <trip id="25" depart="3.75" from="667#4" to="-542" departLane="best"/>
    <trip id="26" depart="3.90" from="626" to="655#0" departLane="best"/>
    <trip id="27" depart="4.05" from="604#0" to="691#2" departLane="best"/>
    <trip id="28" depart="4.20" from="546" to="583" departLane="best"/>
    <trip id="29" depart="4.35" from="604#1" to="690#1" departLane="best"/>
    <trip id="30" depart="4.50" from="619#3" to="685#0" departLane="best"/>
	<trip id="31" depart="4.65" from="650#1" to="-491#3" departLane="best"/>
    <trip id="32" depart="4.80" from="701#0" to="697#0" departLane="best"/>
    <trip id="33" depart="4.95" from="666#2" to="658#2" departLane="best"/>
    <trip id="34" depart="5.10" from="575#0" to="611" departLane="best"/>
    <trip id="35" depart="5.25" from="690#1" to="741#0" departLane="best"/>
    <trip id="36" depart="5.40" from="703#1" to="626" departLane="best"/>
    <trip id="37" depart="5.55" from="-30#1" to="582#1" departLane="best"/>
    <trip id="38" depart="5.70" from="674#2" to="2#1" departLane="best"/>
    <trip id="39" depart="5.85" from="682" to="125#0" departLane="best"/>
    <trip id="40" depart="6.00" from="658#1" to="712#1" departLane="best"/>
    <trip id="41" depart="6.15" from="-768#7" to="-127" departLane="best"/>
    <trip id="42" depart="6.30" from="6#2" to="697#3" departLane="best"/>
    <trip id="43" depart="6.45" from="575#0" to="627#1" departLane="best"/>
    <trip id="44" depart="6.60" from="606#3" to="-32#0" departLane="best"/>
    <trip id="45" depart="6.75" from="597" to="-571#0" departLane="best"/>
    <trip id="46" depart="6.90" from="112#1" to="701#0" departLane="best"/>
    <trip id="47" depart="7.05" from="548#0" to="690#2" departLane="best"/>
    <trip id="48" depart="7.20" from="-6#2" to="131" departLane="best"/>
	<trip id="49" depart="7.35" from="623" to="615#8" departLane="best"/>
    <trip id="50" depart="7.50" from="656" to="617#4" departLane="best"/>
    <trip id="51" depart="7.65" from="706#3" to="687#0" departLane="best"/>
    <trip id="52" depart="7.80" from="599" to="-768#7" departLane="best"/>
    <trip id="53" depart="7.95" from="631" to="27#3" departLane="best"/>
    <trip id="54" depart="8.10" from="569#2" to="603" departLane="best"/>
    <trip id="55" depart="8.25" from="547#0" to="708#1" departLane="best"/>
    <trip id="56" depart="8.40" from="-60#0" to="-60#0" departLane="best"/>
    <trip id="57" depart="8.55" from="-768#2" to="6#2" departLane="best"/>
    <trip id="58" depart="8.70" from="619#3" to="611" departLane="best"/>
    <trip id="59" depart="8.85" from="-86#1" to="629#1" departLane="best"/>
    <trip id="60" depart="9.00" from="13#11" to="13#8" departLane="best"/>
    <trip id="61" depart="9.15" from="615#6" to="617#0" departLane="best"/>
    <trip id="62" depart="9.30" from="667#4" to="668#1" departLane="best"/>
    <trip id="63" depart="9.45" from="-13#9" to="-112#3" departLane="best"/>
    <trip id="64" depart="9.60" from="708#1" to="690#0" departLane="best"/>
    <trip id="65" depart="9.75" from="-29#1" to="13#7" departLane="best"/>
    <trip id="66" depart="9.90" from="205#1" to="-768#2" departLane="best"/>
    <trip id="67" depart="10.05" from="565#1" to="-130#1" departLane="best"/>
    <trip id="68" depart="10.20" from="684#1" to="86#2" departLane="best"/>
    <trip id="69" depart="10.35" from="591#1" to="29#1" departLane="best"/>
    <trip id="70" depart="10.50" from="129" to="591#1" departLane="best"/>
    <trip id="71" depart="10.65" from="586#0" to="619#7" departLane="best"/>
    <trip id="72" depart="10.80" from="700#0" to="687#1" departLane="best"/>
    <trip id="73" depart="10.95" from="-86#3" to="11#6" departLane="best"/>
    <trip id="74" depart="11.10" from="86#3" to="92#1" departLane="best"/>
    <trip id="75" depart="11.25" from="713" to="92#0" departLane="best"/>
    <trip id="76" depart="11.40" from="624#3" to="85" departLane="best"/>
    <trip id="77" depart="11.55" from="555#0" to="617#3" departLane="best"/>
    <trip id="78" depart="11.70" from="684#1" to="-86#1" departLane="best"/>
    <trip id="79" depart="11.85" from="558#0" to="-86#3" departLane="best"/>
    <trip id="80" depart="12.00" from="706#2" to="-742" departLane="best"/>
    <trip id="81" depart="12.15" from="658#4" to="29#2" departLane="best"/>
    <trip id="82" depart="12.30" from="125#0" to="697#0" departLane="best"/>
    <trip id="83" depart="12.45" from="612#1" to="-33" departLane="best"/>
    <trip id="84" depart="12.60" from="-768#3" to="685#3" departLane="best"/>
    <trip id="85" depart="12.75" from="668#0" to="628#0" departLane="best"/>
    <trip id="86" depart="12.90" from="-124" to="144#1" departLane="best"/>
    <trip id="87" depart="13.05" from="690#3" to="12#2" departLane="best"/>
    <trip id="88" depart="13.20" from="599" to="86#0" departLane="best"/>
    <trip id="89" depart="13.35" from="532#2" to="674#3" departLane="best"/>
    <trip id="90" depart="13.50" from="583" to="691#0" departLane="best"/>
    <trip id="91" depart="13.65" from="2#2" to="575#1" departLane="best"/>
    <trip id="92" depart="13.80" from="571#0" to="667#0" departLane="best"/>
    <trip id="93" depart="13.95" from="547#1" to="622" departLane="best"/>
    <trip id="94" depart="14.10" from="615#1" to="704" departLane="best"/>
    <trip id="95" depart="14.25" from="609#1" to="690#0" departLane="best"/>
    <trip id="96" depart="14.40" from="-491#3" to="-491#3" departLane="best"/>
    <trip id="97" depart="14.55" from="591#0" to="685#4" departLane="best"/> 
    <trip id="98" depart="14.70" from="86#0" to="-491#2" departLane="best"/>
    <trip id="99" depart="14.85" from="650#0" to="144#1" departLane="best"/>
    <trip id="100" depart="15.00" from="657#0" to="-620#0" departLane="best"/>
    <trip id="101" depart="15.15" from="582#2" to="592#2" departLane="best"/>
    <trip id="102" depart="15.30" from="129" to="672" departLane="best"/>
    <trip id="103" depart="15.45" from="-29#4" to="13#10" departLane="best"/>
    <trip id="104" depart="15.60" from="-290#1" to="112#1" departLane="best"/>
    <trip id="105" depart="15.75" from="689" to="575#1" departLane="best"/>
    <trip id="106" depart="15.90" from="713" to="613" departLane="best"/>
    <trip id="107" depart="16.05" from="617#5" to="205#0" departLane="best"/>
    <trip id="108" depart="16.20" from="-491#5" to="-768#7" departLane="best"/>
    <trip id="109" depart="16.35" from="697#2" to="685#0" departLane="best"/>
    <trip id="110" depart="16.50" from="-768#7" to="29#5" departLane="best"/>
    <trip id="111" depart="16.65" from="619#7" to="617#3" departLane="best"/>
    <trip id="112" depart="16.80" from="571#0" to="567#0" departLane="best"/>
    <trip id="113" depart="16.95" from="-32#1" to="667#1" departLane="best"/>
    <trip id="114" depart="17.10" from="13#6" to="617#4" departLane="best"/>
    <trip id="115" depart="17.25" from="657#2" to="668#1" departLane="best"/>
    <trip id="116" depart="17.40" from="670#0" to="617#2" departLane="best"/>
    <trip id="117" depart="17.55" from="595#1" to="615#5" departLane="best"/>
    <trip id="118" depart="17.70" from="11#1" to="656" departLane="best"/>
    <trip id="119" depart="17.85" from="583" to="577" departLane="best"/>
    <trip id="120" depart="18.00" from="644" to="768#5" departLane="best"/>
    <trip id="121" depart="18.15" from="624#2" to="617#0" departLane="best"/>
    <trip id="122" depart="18.30" from="667#6" to="768#8" departLane="best"/>
    <trip id="123" depart="18.45" from="532#0" to="650#1" departLane="best"/>
    <trip id="124" depart="18.60" from="555#1" to="-205#1" departLane="best"/>
    <trip id="125" depart="18.75" from="695#0" to="687#1" departLane="best"/>
    <trip id="126" depart="18.90" from="643" to="619#1" departLane="best"/>
    <trip id="127" depart="19.05" from="-30#1" to="667#3" departLane="best"/>
    <trip id="128" depart="19.20" from="586#3" to="577" departLane="best"/>
    <trip id="129" depart="19.35" from="705#1" to="615#10" departLane="best"/>
    <trip id="130" depart="19.50" from="685#3" to="619#0" departLane="best"/>
    <trip id="131" depart="19.65" from="612#0" to="576#2" departLane="best"/>
    <trip id="132" depart="19.80" from="667#2" to="32#1" departLane="best"/>
    <trip id="133" depart="19.95" from="601#0" to="624#3" departLane="best"/>
    <trip id="134" depart="20.10" from="-86#4" to="-13#3" departLane="best"/>
    <trip id="135" depart="20.25" from="32#1" to="-768#3" departLane="best"/>
    <trip id="136" depart="20.40" from="491#2" to="-86#3" departLane="best"/>
    <trip id="137" depart="20.55" from="-768#1" to="-768#5" departLane="best"/>
    <trip id="138" depart="20.70" from="702" to="692#2" departLane="best"/>
    <trip id="139" depart="20.85" from="665#1" to="13#9" departLane="best"/>
    <trip id="140" depart="21.00" from="575#2" to="657#2" departLane="best"/>
    <trip id="141" depart="21.15" from="144#1" to="615#5" departLane="best"/>
    <trip id="142" depart="21.30" from="-650#2+545#0" to="11#4" departLane="best"/>
    <trip id="143" depart="21.45" from="112#3" to="658#1" departLane="best"/>
    <trip id="144" depart="21.60" from="620#1" to="679" departLane="best"/>
    <trip id="145" depart="21.75" from="702" to="-491#0" departLane="best"/>
    <trip id="146" depart="21.90" from="667#6" to="617#0" departLane="best"/>
    <trip id="147" depart="22.05" from="694" to="564#0" departLane="best"/>
    <trip id="148" depart="22.20" from="606#1" to="-620#0" departLane="best"/>
    <trip id="149" depart="22.35" from="-491#2" to="117#0" departLane="best"/>
    <trip id="150" depart="22.50" from="741#1" to="-768#4" departLane="best"/>
    <trip id="151" depart="22.65" from="624#1" to="690#2" departLane="best"/>
    <trip id="152" depart="22.80" from="556" to="-650#1" departLane="best"/>
    <trip id="153" depart="22.95" from="673#0" to="624#3" departLane="best"/>
    <trip id="154" depart="23.10" from="-6#1" to="545#1" departLane="best"/>
    <trip id="155" depart="23.25" from="491#4" to="631" departLane="best"/>
    <trip id="156" depart="23.40" from="144#0" to="701#2" departLane="best"/>
    <trip id="157" depart="23.55" from="701#1" to="577" departLane="best"/>
    <trip id="158" depart="23.70" from="692#0" to="7#1" departLane="best"/>
    <trip id="159" depart="23.85" from="627#1" to="587#2" departLane="best"/>
    <trip id="160" depart="24.00" from="554#1" to="-13#8" departLane="best"/>
    <trip id="161" depart="24.15" from="-571#1" to="8#2" departLane="best"/>
    <trip id="162" depart="24.30" from="491#5" to="700#0" departLane="best"/>
    <trip id="163" depart="24.45" from="-13#8" to="631" departLane="best"/>
    <trip id="164" depart="24.60" from="615#6" to="38#0" departLane="best"/>
    <trip id="165" depart="24.75" from="697#0" to="617#3" departLane="best"/>
    <trip id="166" depart="24.90" from="92#2" to="617#2" departLane="best"/>
    <trip id="167" depart="25.05" from="582#0" to="702" departLane="best"/>
    <trip id="168" depart="25.20" from="653" to="660#0" departLane="best"/>
    <trip id="169" depart="25.35" from="112#0" to="13#8" departLane="best"/>
    <trip id="170" depart="25.50" from="673#1" to="691#3" departLane="best"/>
    <trip id="171" depart="25.65" from="768#0" to="-125#0" departLane="best"/>
    <trip id="172" depart="25.80" from="13#7" to="644" departLane="best"/>
    <trip id="173" depart="25.95" from="-6#3" to="59" departLane="best"/>
    <trip id="174" depart="26.10" from="112#3" to="92#1" departLane="best"/>
    <trip id="175" depart="26.25" from="-620#1" to="566" departLane="best"/>
    <trip id="176" depart="26.40" from="2#2" to="628#3" departLane="best"/>
    <trip id="177" depart="26.55" from="658#0" to="-29#1" departLane="best"/>
    <trip id="178" depart="26.70" from="670#0" to="597" departLane="best"/>
    <trip id="179" depart="26.85" from="-205#1" to="615#1" departLane="best"/>
    <trip id="180" depart="27.00" from="657#2" to="591#0" departLane="best"/>
    <trip id="181" depart="27.15" from="92#2" to="86#2" departLane="best"/>
    <trip id="182" depart="27.30" from="658#3" to="706#4" departLane="best"/>
    <trip id="183" depart="27.45" from="554#1" to="616" departLane="best"/>
    <trip id="184" depart="27.60" from="667#0" to="92#2" departLane="best"/>
    <trip id="185" depart="27.75" from="8#1" to="138" departLane="best"/>
    <trip id="186" depart="27.90" from="-13#2" to="-124" departLane="best"/>
    <trip id="187" depart="28.05" from="-491#2" to="492#2" departLane="best"/>
    <trip id="188" depart="28.20" from="142" to="13#9" departLane="best"/>
    <trip id="189" depart="28.35" from="606#1" to="6#1" departLane="best"/>
    <trip id="190" depart="28.50" from="702" to="568#1" departLane="best"/>
    <trip id="191" depart="28.65" from="623" to="-13#2" departLane="best"/>
    <trip id="192" depart="28.80" from="681" to="617#6" departLane="best"/>
    <trip id="193" depart="28.95" from="554#1" to="768#7" departLane="best"/>
    <trip id="194" depart="29.10" from="615#8" to="668#0" departLane="best"/>
    <trip id="195" depart="29.25" from="-86#3" to="690#0" departLane="best"/>
    <trip id="196" depart="29.40" from="-13#3" to="-491#2" departLane="best"/>
    <trip id="197" depart="29.55" from="124" to="-491#4" departLane="best"/>
    <trip id="198" depart="29.70" from="565#1" to="703#1" departLane="best"/>
    <trip id="199" depart="29.85" from="713" to="680" departLane="best"/>
    <trip id="200" depart="30.00" from="85" to="615#2" departLane="best"/>
    <trip id="201" depart="30.15" from="658#2" to="62#0" departLane="best"/>
    <trip id="202" depart="30.30" from="-32#0" to="-13#10" departLane="best"/>
    <trip id="203" depart="30.45" from="673#1" to="92#1" departLane="best"/>
    <trip id="204" depart="30.60" from="768#8" to="-542" departLane="best"/>
    <trip id="205" depart="30.75" from="617#3" to="582#2" departLane="best"/>
    <trip id="206" depart="30.90" from="8#3" to="144#0" departLane="best"/>
    <trip id="207" depart="31.05" from="675" to="655#1" departLane="best"/>
    <trip id="208" depart="31.20" from="674#4" to="615#8" departLane="best"/>
    <trip id="209" depart="31.35" from="682" to="112#0" departLane="best"/>
    <trip id="210" depart="31.50" from="708#1" to="6#3" departLane="best"/>
    <trip id="211" depart="31.65" from="-768#4" to="582#0" departLane="best"/>
    <trip id="212" depart="31.80" from="619#1" to="713" departLane="best"/>
    <trip id="213" depart="31.95" from="685#3" to="8#3" departLane="best"/>
    <trip id="214" depart="32.10" from="685#3" to="13#8" departLane="best"/>
    <trip id="215" depart="32.25" from="492#0" to="706#5" departLane="best"/>
    <trip id="216" depart="32.40" from="586#1" to="667#4" departLane="best"/>
    <trip id="217" depart="32.55" from="27#1" to="604#1" departLane="best"/>
    <trip id="218" depart="32.70" from="668#1" to="599" departLane="best"/>
    <trip id="219" depart="32.85" from="768#0" to="657#2" departLane="best"/>
    <trip id="220" depart="33.00" from="706#1" to="29#5" departLane="best"/>
    <trip id="221" depart="33.15" from="11#4" to="-768#3" departLane="best"/>
    <trip id="222" depart="33.30" from="86#3" to="712#1" departLane="best"/>
    <trip id="223" depart="33.45" from="-13#6" to="624#2" departLane="best"/>
    <trip id="224" depart="33.60" from="689" to="553" departLane="best"/>
    <trip id="225" depart="33.75" from="715#1" to="587#1" departLane="best"/>
    <trip id="226" depart="33.90" from="32#0" to="564#0" departLane="best"/>
    <trip id="227" depart="34.05" from="12#2" to="565#1" departLane="best"/>
    <trip id="228" depart="34.20" from="706#5" to="629#1" departLane="best"/>
    <trip id="229" depart="34.35" from="547#1" to="-13#9" departLane="best"/>
    <trip id="230" depart="34.50" from="644" to="62#0" departLane="best"/>
    <trip id="231" depart="34.65" from="8#2" to="491#5" departLane="best"/>
    <trip id="232" depart="34.80" from="-86#1" to="625#1" departLane="best"/>
    <trip id="233" depart="34.95" from="624#2" to="550" departLane="best"/>
    <trip id="234" depart="35.10" from="27#3" to="580#0" departLane="best"/>
    <trip id="235" depart="35.25" from="706#1" to="38#0" departLane="best"/>
    <trip id="236" depart="35.40" from="595#2" to="663#2" departLane="best"/>
    <trip id="237" depart="35.55" from="615#4" to="586#1" departLane="best"/>
    <trip id="238" depart="35.70" from="-86#2" to="619#4" departLane="best"/>
    <trip id="239" depart="35.85" from="609#1" to="697#0" departLane="best"/>
    <trip id="240" depart="36.00" from="617#3" to="-768#5" departLane="best"/>
    <trip id="241" depart="36.15" from="697#3" to="-86#0" departLane="best"/>
    <trip id="242" depart="36.30" from="581#0" to="691#3" departLane="best"/>
    <trip id="243" depart="36.45" from="-112#0" to="670#0" departLane="best"/>
    <trip id="244" depart="36.60" from="27#2" to="59" departLane="best"/>
    <trip id="245" depart="36.75" from="-205#1" to="142" departLane="best"/>
    <trip id="246" depart="36.90" from="-13#0" to="607" departLane="best"/>
    <trip id="247" depart="37.05" from="605#0" to="597" departLane="best"/>
    <trip id="248" depart="37.20" from="699" to="696#0" departLane="best"/>
    <trip id="249" depart="37.35" from="674#4" to="619#3" departLane="best"/>
    <trip id="250" depart="37.50" from="601#0" to="620#1" departLane="best"/>
    <trip id="251" depart="37.65" from="690#2" to="684#0" departLane="best"/>
    <trip id="252" depart="37.80" from="86#3" to="125#0" departLane="best"/>
    <trip id="253" depart="37.95" from="643" to="492#0" departLane="best"/>
    <trip id="254" depart="38.10" from="548#1" to="683#1" departLane="best"/>
    <trip id="255" depart="38.25" from="617#3" to="660#0" departLane="best"/>
    <trip id="256" depart="38.40" from="577" to="627#0" departLane="best"/>
	<trip id="257" depart="38.55" from="86#0" to="768#8" departLane="best"/>
    <trip id="258" depart="38.70" from="-86#0" to="576#2" departLane="best"/>
    <trip id="259" depart="38.85" from="592#1" to="662#0" departLane="best"/>
    <trip id="260" depart="39.00" from="685#1" to="-13#3" departLane="best"/>
    <trip id="261" depart="39.15" from="673#0" to="599" departLane="best"/>
    <trip id="262" depart="39.30" from="667#0" to="658#3" departLane="best"/>
    <trip id="263" depart="39.45" from="674#2" to="29#2" departLane="best"/>
    <trip id="264" depart="39.60" from="653" to="656" departLane="best"/>
    <trip id="265" depart="39.75" from="585" to="551" departLane="best"/>
    <trip id="266" depart="39.90" from="565#1" to="576#1" departLane="best"/>
	<trip id="267" depart="40.05" from="86#3" to="86#4" departLane="best"/>
    <trip id="268" depart="40.20" from="768#7" to="-13#0" departLane="best"/>
    <trip id="269" depart="40.35" from="662#0" to="690#2" departLane="best"/>
    <trip id="270" depart="40.50" from="-494" to="-38#1" departLane="best"/>
    <trip id="271" depart="40.65" from="-620#0" to="8#2" departLane="best"/>
    <trip id="272" depart="40.80" from="768#4" to="697#4" departLane="best"/>
    <trip id="273" depart="40.95" from="-33" to="712#0" departLane="best"/>
    <trip id="274" depart="41.10" from="590#0" to="583" departLane="best"/>
    <trip id="275" depart="41.25" from="768#2" to="138" departLane="best"/>
    <trip id="276" depart="41.40" from="741#1" to="410" departLane="best"/>
    <trip id="277" depart="41.55" from="13#10" to="542" departLane="best"/>
    <trip id="278" depart="41.70" from="593" to="624#1" departLane="best"/>
    <trip id="279" depart="41.85" from="629#0" to="690#1" departLane="best"/>
    <trip id="280" depart="42.00" from="13#3" to="768#1" departLane="best"/>
    <trip id="281" depart="42.15" from="625#2" to="692#1" departLane="best"/>
    <trip id="282" depart="42.30" from="706#2" to="615#4" departLane="best"/>
    <trip id="283" depart="42.45" from="91#2" to="205#0" departLane="best"/>
    <trip id="284" depart="42.60" from="712#2" to="-768#3" departLane="best"/>
    <trip id="285" depart="42.75" from="2#2" to="617#3" departLane="best"/>
    <trip id="286" depart="42.90" from="673#0" to="691#3" departLane="best"/>
    <trip id="287" depart="43.05" from="-38#0" to="695#0" departLane="best"/>
    <trip id="288" depart="43.20" from="112#3" to="615#1" departLane="best"/>
    <trip id="289" depart="43.35" from="708#1" to="712#1" departLane="best"/>
    <trip id="290" depart="43.50" from="117#1" to="658#4" departLane="best"/>
    <trip id="291" depart="43.65" from="553" to="598" departLane="best"/>
    <trip id="292" depart="43.80" from="7#1" to="7#1" departLane="best"/>
    <trip id="293" depart="43.95" from="674#3" to="-13#5" departLane="best"/>
    <trip id="294" depart="44.10" from="683#1" to="603" departLane="best"/>
    <trip id="295" depart="44.25" from="706#6" to="59" departLane="best"/>
    <trip id="296" depart="44.40" from="666#2" to="142" departLane="best"/>
    <trip id="297" depart="44.55" from="619#7" to="768#7" departLane="best"/>
    <trip id="298" depart="44.70" from="8#3" to="682" departLane="best"/>
    <trip id="299" depart="44.85" from="-768#1" to="697#4" departLane="best"/>
    <trip id="300" depart="45.00" from="30#0" to="8#3" departLane="best"/>
    <trip id="301" depart="45.15" from="13#10" to="629#1" departLane="best"/>
    <trip id="302" depart="45.30" from="692#2" to="615#10" departLane="best"/>
    <trip id="303" depart="45.45" from="545#1" to="620#0" departLane="best"/>
    <trip id="304" depart="45.60" from="620#1" to="768#1" departLane="best"/>
    <trip id="305" depart="45.75" from="32#1" to="697#3" departLane="best"/>
    <trip id="306" depart="45.90" from="-491#5" to="692#2" departLane="best"/>
    <trip id="307" depart="46.05" from="586#2" to="689" departLane="best"/>
    <trip id="308" depart="46.20" from="670#0" to="27#1" departLane="best"/>
    <trip id="309" depart="46.35" from="595#1" to="629#0" departLane="best"/>
    <trip id="310" depart="46.50" from="491#2" to="567#0" departLane="best"/>
    <trip id="311" depart="46.65" from="2#2" to="691#0" departLane="best"/>
    <trip id="312" depart="46.80" from="491#4" to="32#0" departLane="best"/>
    <trip id="313" depart="46.95" from="-59" to="-85" departLane="best"/>
    <trip id="314" depart="47.10" from="592#4" to="-86#3" departLane="best"/>
    <trip id="315" depart="47.25" from="13#3" to="609#1" departLane="best"/>
    <trip id="316" depart="47.40" from="667#3" to="491#3" departLane="best"/>
    <trip id="317" depart="47.55" from="-62#2" to="712#2" departLane="best"/>
    <trip id="318" depart="47.70" from="819" to="-491#5" departLane="best"/>
    <trip id="319" depart="47.85" from="29#1" to="617#0" departLane="best"/>
    <trip id="320" depart="48.00" from="684#1" to="700#0" departLane="best"/>
    <trip id="321" depart="48.15" from="91#1" to="-86#1" departLane="best"/>
    <trip id="322" depart="48.30" from="624#3" to="705#1" departLane="best"/>
    <trip id="323" depart="48.45" from="548#0" to="685#2" departLane="best"/>
    <trip id="324" depart="48.60" from="8#2" to="706#4" departLane="best"/>
    <trip id="325" depart="48.75" from="712#2" to="612#0" departLane="best"/>
    <trip id="326" depart="48.90" from="617#1" to="29#2" departLane="best"/>
    <trip id="327" depart="49.05" from="92#2" to="138" departLane="best"/>
    <trip id="328" depart="49.20" from="-768#7" to="-6#3" departLane="best"/>
    <trip id="329" depart="49.35" from="607" to="545#1" departLane="best"/>
    <trip id="330" depart="49.50" from="-124" to="-86#2" departLane="best"/>
    <trip id="331" depart="49.65" from="-86#4" to="410" departLane="best"/>
    <trip id="332" depart="49.80" from="117#1" to="768#1" departLane="best"/>
    <trip id="333" depart="49.95" from="619#1" to="690#0" departLane="best"/>
    <trip id="334" depart="50.10" from="8#2" to="-112#1" departLane="best"/>
    <trip id="335" depart="50.25" from="8#4" to="598" departLane="best"/>
    <trip id="336" depart="50.40" from="576#1" to="659#1" departLane="best"/>
    <trip id="337" depart="50.55" from="625#1" to="666#2" departLane="best"/>
    <trip id="338" depart="50.70" from="-38#1" to="-92#0" departLane="best"/>
    <trip id="339" depart="50.85" from="2#1" to="570" departLane="best"/>
	<trip id="340" depart="51.00" from="768#8" to="662#2" departLane="best"/>
    <trip id="341" depart="51.15" from="-86#3" to="-117#0" departLane="best"/>
    <trip id="342" depart="51.30" from="611" to="7#1" departLane="best"/>
    <trip id="343" depart="51.45" from="13#8" to="112#3" departLane="best"/>
    <trip id="344" depart="51.60" from="605#0" to="673#1" departLane="best"/>
    <trip id="345" depart="51.75" from="7#2" to="550" departLane="best"/>
    <trip id="346" depart="51.90" from="692#2" to="619#3" departLane="best"/>
    <trip id="347" depart="52.05" from="599" to="609#1" departLane="best"/>
    <trip id="348" depart="52.20" from="658#3" to="33" departLane="best"/>
    <trip id="349" depart="52.35" from="-13#3" to="667#0" departLane="best"/>
    <trip id="350" depart="52.50" from="-92#0" to="566" departLane="best"/>
    <trip id="351" depart="52.65" from="684#0" to="6#5" departLane="best"/>
    <trip id="352" depart="52.80" from="6#3" to="617#6" departLane="best"/>
    <trip id="353" depart="52.95" from="144#0" to="617#2" departLane="best"/>
    <trip id="354" depart="53.10" from="612#0" to="6#5" departLane="best"/>
    <trip id="355" depart="53.25" from="-117#1" to="-38#0" departLane="best"/>
    <trip id="356" depart="53.40" from="-491#2" to="592#1" departLane="best"/>
    <trip id="357" depart="53.55" from="540#1" to="11#6" departLane="best"/>
    <trip id="358" depart="53.70" from="615#1" to="-127" departLane="best"/>
    <trip id="359" depart="53.85" from="768#3" to="646#1" departLane="best"/>
    <trip id="360" depart="54.00" from="565#0" to="653" departLane="best"/>
    <trip id="361" depart="54.15" from="605#0" to="612#0" departLane="best"/>
    <trip id="362" depart="54.30" from="657#1" to="568#0" departLane="best"/>
    <trip id="363" depart="54.45" from="592#3" to="13#9" departLane="best"/>
    <trip id="364" depart="54.60" from="624#0" to="701#2" departLane="best"/>
    <trip id="365" depart="54.75" from="692#0" to="-13#5" departLane="best"/>
    <trip id="366" depart="54.90" from="685#0" to="575#3" departLane="best"/>
    <trip id="367" depart="55.05" from="624#3" to="690#2" departLane="best"/>
    <trip id="368" depart="55.20" from="660#0" to="610" departLane="best"/>
    <trip id="369" depart="55.35" from="-38#0" to="-571#0" departLane="best"/>
    <trip id="370" depart="55.50" from="609#1" to="658#0" departLane="best"/>
    <trip id="371" depart="55.65" from="491#2" to="-290#1" departLane="best"/>
    <trip id="372" depart="55.80" from="32#0" to="615#2" departLane="best"/>
    <trip id="373" depart="55.95" from="590#1" to="691#3" departLane="best"/>
    <trip id="374" depart="56.10" from="615#3" to="617#0" departLane="best"/>
    <trip id="375" depart="56.25" from="665#1" to="682" departLane="best"/>
    <trip id="376" depart="56.40" from="667#1" to="-650#1" departLane="best"/>
    <trip id="377" depart="56.55" from="30#0" to="685#2" departLane="best"/>
    <trip id="378" depart="56.70" from="564#1" to="603" departLane="best"/>
    <trip id="379" depart="56.85" from="33" to="694" departLane="best"/>
    <trip id="380" depart="57.00" from="676" to="577" departLane="best"/>
    <trip id="381" depart="57.15" from="667#0" to="142" departLane="best"/>
    <trip id="382" depart="57.30" from="564#0" to="670#2" departLane="best"/>
    <trip id="383" depart="57.45" from="13#0" to="-29#3" departLane="best"/>
    <trip id="384" depart="57.60" from="619#1" to="606#0" departLane="best"/>
    <trip id="385" depart="57.75" from="615#8" to="613" departLane="best"/>
    <trip id="386" depart="57.90" from="768#5" to="768#2" departLane="best"/>
    <trip id="387" depart="58.05" from="575#3" to="657#2" departLane="best"/>