<additional>
	<vType id="RSU" color="255,0,0" guiShape="bus"/>

	<vehicle id="600" type="RSU" depart="0" departPos="31.85" color="255,0,0">
		<route edges="699"/>
		<stop lane="699_0" parking="true" endPos="31.85" until="499"/>
	</vehicle>
	<vehicle id="601" type="RSU" depart="0" departPos="273.64" color="255,0,0">
		<route edges="687/0"/>
		<stop lane="687/0_0" parking="true" endPos="273.64" until="499"/>
	</vehicle>
	<vehicle id="602" type="RSU" depart="0" departPos="140.89" color="255,0,0">
		<route edges="619/3"/>
		<stop lane="619/3_0" parking="true" endPos="140.89" until="499"/>
	</vehicle>
	<vehicle id="603" type="RSU" depart="0" departPos="18.33" color="255,0,0">
		<route edges="-620/0"/>
		<stop lane="-620/0_0" parking="true" endPos="18.33" until="499"/>
	</vehicle>
	<vehicle id="604" type="RSU" depart="0" departPos="182.7" color="255,0,0">
		<route edges="599"/>
		<stop lane="599_0" parking="true" endPos="182.7" until="499"/>
	</vehicle>
	<vehicle id="605" type="RSU" depart="0" departPos="158.14" color="255,0,0">
		<route edges="27/1"/>
		<stop lane="27/1_0" parking="true" endPos="158.14" until="499"/>
	</vehicle>
	<vehicle id="606" type="RSU" depart="0" departPos="146.19" color="255,0,0">
		<route edges="690/1"/>
		<stop lane="690/1_0" parking="true" endPos="146.19" until="499"/>
	</vehicle>
	<vehicle id="607" type="RSU" depart="0" departPos="61.54" color="255,0,0">
		<route edges="565/1"/>
		<stop lane="565/1_0" parking="true" endPos="61.54" until="499"/>
	</vehicle>
	<vehicle id="608" type="RSU" depart="0" departPos="126.63" color="255,0,0">
		<route edges="619/5"/>
		<stop lane="619/5_0" parking="true" endPos="126.63" until="499"/>
	</vehicle>
	<vehicle id="609" type="RSU" depart="0" departPos="25.68" color="255,0,0">
		<route edges="574"/>
		<stop lane="574_0" parking="true" endPos="25.68" until="499"/>
	</vehicle>
	<vehicle id="610" type="RSU" depart="0" departPos="128.33" color="255,0,0">
		<route edges="-38/0"/>
		<stop lane="-38/0_0" parking="true" endPos="128.33" until="499"/>
	</vehicle>
	<vehicle id="611" type="RSU" depart="0" departPos="155.93" color="255,0,0">
		<route edges="609/1"/>
		<stop lane="609/1_0" parking="true" endPos="155.93" until="499"/>
	</vehicle>
	<vehicle id="612" type="RSU" depart="0" departPos="20.08" color="255,0,0">
		<route edges="539/1"/>
		<stop lane="539/1_0" parking="true" endPos="20.08" until="499"/>
	</vehicle>
	<vehicle id="613" type="RSU" depart="0" departPos="105.06" color="255,0,0">
		<route edges="617/2"/>
		<stop lane="617/2_0" parking="true" endPos="105.06" until="499"/>
	</vehicle>
	<vehicle id="614" type="RSU" depart="0" departPos="11.33" color="255,0,0">
		<route edges="548/1"/>
		<stop lane="548/1_0" parking="true" endPos="11.33" until="499"/>
	</vehicle>
	<vehicle id="615" type="RSU" depart="0" departPos="39.51" color="255,0,0">
		<route edges="691/3"/>
		<stop lane="691/3_0" parking="true" endPos="39.51" until="499"/>
	</vehicle>
	<vehicle id="616" type="RSU" depart="0" departPos="17.43" color="255,0,0">
		<route edges="690/3"/>
		<stop lane="690/3_0" parking="true" endPos="17.43" until="499"/>
	</vehicle>
	<vehicle id="617" type="RSU" depart="0" departPos="304.85" color="255,0,0">
		<route edges="585"/>
		<stop lane="585_0" parking="true" endPos="304.85" until="499"/>
	</vehicle>
	<vehicle id="618" type="RSU" depart="0" departPos="162.56" color="255,0,0">
		<route edges="685/3"/>
		<stop lane="685/3_0" parking="true" endPos="162.56" until="499"/>
	</vehicle>
	<vehicle id="619" type="RSU" depart="0" departPos="1057.64" color="255,0,0">
		<route edges="715/0"/>
		<stop lane="715/0_0" parking="true" endPos="1057.64" until="499"/>
	</vehicle>
	<vehicle id="620" type="RSU" depart="0" departPos="213.62" color="255,0,0">
		<route edges="-571/0"/>
		<stop lane="-571/0_0" parking="true" endPos="213.62" until="499"/>
	</vehicle>
	<vehicle id="621" type="RSU" depart="0" departPos="163.16" color="255,0,0">
		<route edges="569/2"/>
		<stop lane="569/2_0" parking="true" endPos="163.16" until="499"/>
	</vehicle>
	<vehicle id="622" type="RSU" depart="0" departPos="71.34" color="255,0,0">
		<route edges="569/0"/>
		<stop lane="569/0_0" parking="true" endPos="71.34" until="499"/>
	</vehicle>
	<vehicle id="623" type="RSU" depart="0" departPos="13.57" color="255,0,0">
		<route edges="491/3"/>
		<stop lane="491/3_0" parking="true" endPos="13.57" until="499"/>
	</vehicle>
	<vehicle id="624" type="RSU" depart="0" departPos="274.51" color="255,0,0">
		<route edges="-768/5"/>
		<stop lane="-768/5_0" parking="true" endPos="274.51" until="499"/>
	</vehicle>
	<vehicle id="625" type="RSU" depart="0" departPos="212.59" color="255,0,0">
		<route edges="718/1"/>
		<stop lane="718/1_0" parking="true" endPos="212.59" until="499"/>
	</vehicle>
	<vehicle id="626" type="RSU" depart="0" departPos="304.02" color="255,0,0">
		<route edges="619/7"/>
		<stop lane="619/7_0" parking="true" endPos="304.02" until="499"/>
	</vehicle>
	<vehicle id="627" type="RSU" depart="0" departPos="143.42" color="255,0,0">
		<route edges="494"/>
		<stop lane="494_0" parking="true" endPos="143.42" until="499"/>
	</vehicle>
	<vehicle id="628" type="RSU" depart="0" departPos="52.38" color="255,0,0">
		<route edges="50/1"/>
		<stop lane="50/1_0" parking="true" endPos="52.38" until="499"/>
	</vehicle>
	<vehicle id="629" type="RSU" depart="0" departPos="550.1" color="255,0,0">
		<route edges="707/2"/>
		<stop lane="707/2_0" parking="true" endPos="550.1" until="499"/>
	</vehicle>
	<vehicle id="630" type="RSU" depart="0" departPos="362.35" color="255,0,0">
		<route edges="91/1"/>
		<stop lane="91/1_0" parking="true" endPos="362.35" until="499"/>
	</vehicle>
	<vehicle id="631" type="RSU" depart="0" departPos="82.69" color="255,0,0">
		<route edges="615/4"/>
		<stop lane="615/4_0" parking="true" endPos="82.69" until="499"/>
	</vehicle>
	<vehicle id="632" type="RSU" depart="0" departPos="49.21" color="255,0,0">
		<route edges="650/1"/>
		<stop lane="650/1_0" parking="true" endPos="49.21" until="499"/>
	</vehicle>
	<vehicle id="633" type="RSU" depart="0" departPos="39.25" color="255,0,0">
		<route edges="596"/>
		<stop lane="596_0" parking="true" endPos="39.25" until="499"/>
	</vehicle>
	<vehicle id="634" type="RSU" depart="0" departPos="137.14" color="255,0,0">
		<route edges="706/4"/>
		<stop lane="706/4_0" parking="true" endPos="137.14" until="499"/>
	</vehicle>
	<vehicle id="635" type="RSU" depart="0" departPos="807.26" color="255,0,0">
		<route edges="9"/>
		<stop lane="9_0" parking="true" endPos="807.26" until="499"/>
	</vehicle>
	<vehicle id="636" type="RSU" depart="0" departPos="264.44" color="255,0,0">
		<route edges="666/3"/>
		<stop lane="666/3_0" parking="true" endPos="264.44" until="499"/>
	</vehicle>
	<vehicle id="637" type="RSU" depart="0" departPos="106.1" color="255,0,0">
		<route edges="-6/5"/>
		<stop lane="-6/5_0" parking="true" endPos="106.1" until="499"/>
	</vehicle>
	<vehicle id="638" type="RSU" depart="0" departPos="398.55" color="255,0,0">
		<route edges="38/1"/>
		<stop lane="38/1_0" parking="true" endPos="398.55" until="499"/>
	</vehicle>
	<vehicle id="639" type="RSU" depart="0" departPos="349.24" color="255,0,0">
		<route edges="-13/11"/>
		<stop lane="-13/11_0" parking="true" endPos="349.24" until="499"/>
	</vehicle>
	<vehicle id="640" type="RSU" depart="0" departPos="165.88" color="255,0,0">
		<route edges="662/1"/>
		<stop lane="662/1_0" parking="true" endPos="165.88" until="499"/>
	</vehicle>
	<vehicle id="641" type="RSU" depart="0" departPos="5.84" color="255,0,0">
		<route edges="-112/1"/>
		<stop lane="-112/1_0" parking="true" endPos="5.84" until="499"/>
	</vehicle>
	<vehicle id="642" type="RSU" depart="0" departPos="34.11" color="255,0,0">
		<route edges="616"/>
		<stop lane="616_0" parking="true" endPos="34.11" until="499"/>
	</vehicle>
	<vehicle id="643" type="RSU" depart="0" departPos="881.33" color="255,0,0">
		<route edges="661/1"/>
		<stop lane="661/1_0" parking="true" endPos="881.33" until="499"/>
	</vehicle>
	<vehicle id="644" type="RSU" depart="0" departPos="808.81" color="255,0,0">
		<route edges="566"/>
		<stop lane="566_0" parking="true" endPos="808.81" until="499"/>
	</vehicle>
	<vehicle id="645" type="RSU" depart="0" departPos="170.98" color="255,0,0">
		<route edges="658/1"/>
		<stop lane="658/1_0" parking="true" endPos="170.98" until="499"/>
	</vehicle>
	<vehicle id="646" type="RSU" depart="0" departPos="24.97" color="255,0,0">
		<route edges="129"/>
		<stop lane="129_0" parking="true" endPos="24.97" until="499"/>
	</vehicle>
	<vehicle id="647" type="RSU" depart="0" departPos="200.45" color="255,0,0">
		<route edges="705/0"/>
		<stop lane="705/0_0" parking="true" endPos="200.45" until="499"/>
	</vehicle>
	<vehicle id="648" type="RSU" depart="0" departPos="6.52" color="255,0,0">
		<route edges="697/3"/>
		<stop lane="697/3_0" parking="true" endPos="6.52" until="499"/>
	</vehicle>
	<vehicle id="649" type="RSU" depart="0" departPos="137.42" color="255,0,0">
		<route edges="-29/2"/>
		<stop lane="-29/2_0" parking="true" endPos="137.42" until="499"/>
	</vehicle>
	<vehicle id="650" type="RSU" depart="0" departPos="125.08" color="255,0,0">
		<route edges="691/1"/>
		<stop lane="691/1_0" parking="true" endPos="125.08" until="499"/>
	</vehicle>
	<vehicle id="651" type="RSU" depart="0" departPos="2.89" color="255,0,0">
		<route edges="-112/2"/>
		<stop lane="-112/2_0" parking="true" endPos="2.89" until="499"/>
	</vehicle>
	<vehicle id="652" type="RSU" depart="0" departPos="145.29" color="255,0,0">
		<route edges="668/1"/>
		<stop lane="668/1_0" parking="true" endPos="145.29" until="499"/>
	</vehicle>
	<vehicle id="653" type="RSU" depart="0" departPos="558.91" color="255,0,0">
		<route edges="625/1"/>
		<stop lane="625/1_0" parking="true" endPos="558.91" until="499"/>
	</vehicle>
	<vehicle id="654" type="RSU" depart="0" departPos="55.19" color="255,0,0">
		<route edges="741/1"/>
		<stop lane="741/1_0" parking="true" endPos="55.19" until="499"/>
	</vehicle>
	<vehicle id="655" type="RSU" depart="0" departPos="39.25" color="255,0,0">
		<route edges="610"/>
		<stop lane="610_0" parking="true" endPos="39.25" until="499"/>
	</vehicle>
	<vehicle id="656" type="RSU" depart="0" departPos="30.07" color="255,0,0">
		<route edges="144/0"/>
		<stop lane="144/0_0" parking="true" endPos="30.07" until="499"/>
	</vehicle>
	<vehicle id="657" type="RSU" depart="0" departPos="158.49" color="255,0,0">
		<route edges="-13/2"/>
		<stop lane="-13/2_0" parking="true" endPos="158.49" until="499"/>
	</vehicle>
	<vehicle id="658" type="RSU" depart="0" departPos="69.31" color="255,0,0">
		<route edges="-86/2"/>
		<stop lane="-86/2_0" parking="true" endPos="69.31" until="499"/>
	</vehicle>
	<vehicle id="659" type="RSU" depart="0" departPos="45.56" color="255,0,0">
		<route edges="552"/>
		<stop lane="552_0" parking="true" endPos="45.56" until="499"/>
	</vehicle>
	<vehicle id="660" type="RSU" depart="0" departPos="333.79" color="255,0,0">
		<route edges="595/1"/>
		<stop lane="595/1_0" parking="true" endPos="333.79" until="499"/>
	</vehicle>
	<vehicle id="661" type="RSU" depart="0" departPos="79.75" color="255,0,0">
		<route edges="619/0"/>
		<stop lane="619/0_0" parking="true" endPos="79.75" until="499"/>
	</vehicle>
	<vehicle id="662" type="RSU" depart="0" departPos="257.43" color="255,0,0">
		<route edges="685/2"/>
		<stop lane="685/2_0" parking="true" endPos="257.43" until="499"/>
	</vehicle>
	<vehicle id="663" type="RSU" depart="0" departPos="27.12" color="255,0,0">
		<route edges="573"/>
		<stop lane="573_0" parking="true" endPos="27.12" until="499"/>
	</vehicle>
	<vehicle id="664" type="RSU" depart="0" departPos="141.28" color="255,0,0">
		<route edges="-29/5"/>
		<stop lane="-29/5_0" parking="true" endPos="141.28" until="499"/>
	</vehicle>
	<vehicle id="665" type="RSU" depart="0" departPos="165.97" color="255,0,0">
		<route edges="624/3"/>
		<stop lane="624/3_0" parking="true" endPos="165.97" until="499"/>
	</vehicle>
	<vehicle id="666" type="RSU" depart="0" departPos="1010.34" color="255,0,0">
		<route edges="58/3"/>
		<stop lane="58/3_0" parking="true" endPos="1010.34" until="499"/>
	</vehicle>
	<vehicle id="667" type="RSU" depart="0" departPos="14.11" color="255,0,0">
		<route edges="617/1"/>
		<stop lane="617/1_0" parking="true" endPos="14.11" until="499"/>
	</vehicle>
	<vehicle id="668" type="RSU" depart="0" departPos="2206.28" color="255,0,0">
		<route edges="717/1"/>
		<stop lane="717/1_0" parking="true" endPos="2206.28" until="499"/>
	</vehicle>
	<vehicle id="669" type="RSU" depart="0" departPos="40.18" color="255,0,0">
		<route edges="680"/>
		<stop lane="680_0" parking="true" endPos="40.18" until="499"/>
	</vehicle>
	<vehicle id="670" type="RSU" depart="0" departPos="166.97" color="255,0,0">
		<route edges="712/2"/>
		<stop lane="712/2_0" parking="true" endPos="166.97" until="499"/>
	</vehicle>
	<vehicle id="671" type="RSU" depart="0" departPos="22.28" color="255,0,0">
		<route edges="663/1"/>
		<stop lane="663/1_0" parking="true" endPos="22.28" until="499"/>
	</vehicle>
	<vehicle id="672" type="RSU" depart="0" departPos="1216.71" color="255,0,0">
		<route edges="664"/>
		<stop lane="664_0" parking="true" endPos="1216.71" until="499"/>
	</vehicle>
	<vehicle id="673" type="RSU" depart="0" departPos="73.86" color="255,0,0">
		<route edges="618"/>
		<stop lane="618_0" parking="true" endPos="73.86" until="499"/>
	</vehicle>
	<vehicle id="674" type="RSU" depart="0" departPos="107.9" color="255,0,0">
		<route edges="58/2"/>
		<stop lane="58/2_0" parking="true" endPos="107.9" until="499"/>
	</vehicle>
	<vehicle id="675" type="RSU" depart="0" departPos="261.8" color="255,0,0">
		<route edges="58/1"/>
		<stop lane="58/1_0" parking="true" endPos="261.8" until="499"/>
	</vehicle>
	<vehicle id="676" type="RSU" depart="0" departPos="86.1" color="255,0,0">
		<route edges="542"/>
		<stop lane="542_0" parking="true" endPos="86.1" until="499"/>
	</vehicle>
	<vehicle id="677" type="RSU" depart="0" departPos="365.48" color="255,0,0">
		<route edges="697/4"/>
		<stop lane="697/4_0" parking="true" endPos="365.48" until="499"/>
	</vehicle>
	<vehicle id="678" type="RSU" depart="0" departPos="40.06" color="255,0,0">
		<route edges="550"/>
		<stop lane="550_0" parking="true" endPos="40.06" until="499"/>
	</vehicle>
	<vehicle id="679" type="RSU" depart="0" departPos="24.9" color="255,0,0">
		<route edges="691/0"/>
		<stop lane="691/0_0" parking="true" endPos="24.9" until="499"/>
	</vehicle>
	<vehicle id="680" type="RSU" depart="0" departPos="28.83" color="255,0,0">
		<route edges="660/1"/>
		<stop lane="660/1_0" parking="true" endPos="28.83" until="499"/>
	</vehicle>
	<vehicle id="681" type="RSU" depart="0" departPos="153.0" color="255,0,0">
		<route edges="619/4"/>
		<stop lane="619/4_0" parking="true" endPos="153.0" until="499"/>
	</vehicle>
	<vehicle id="682" type="RSU" depart="0" departPos="57.68" color="255,0,0">
		<route edges="137/1"/>
		<stop lane="137/1_0" parking="true" endPos="57.68" until="499"/>
	</vehicle>
	<vehicle id="683" type="RSU" depart="0" departPos="41.9" color="255,0,0">
		<route edges="581/1"/>
		<stop lane="581/1_0" parking="true" endPos="41.9" until="499"/>
	</vehicle>
	<vehicle id="684" type="RSU" depart="0" departPos="154.37" color="255,0,0">
		<route edges="-122/1"/>
		<stop lane="-122/1_0" parking="true" endPos="154.37" until="499"/>
	</vehicle>
	<vehicle id="685" type="RSU" depart="0" departPos="25.58" color="255,0,0">
		<route edges="524/0"/>
		<stop lane="524/0_0" parking="true" endPos="25.58" until="499"/>
	</vehicle>
	<vehicle id="686" type="RSU" depart="0" departPos="36.83" color="255,0,0">
		<route edges="694"/>
		<stop lane="694_0" parking="true" endPos="36.83" until="499"/>
	</vehicle>
	<vehicle id="687" type="RSU" depart="0" departPos="140.26" color="255,0,0">
		<route edges="691/2"/>
		<stop lane="691/2_0" parking="true" endPos="140.26" until="499"/>
	</vehicle>
	<vehicle id="688" type="RSU" depart="0" departPos="43.55" color="255,0,0">
		<route edges="-86/0"/>
		<stop lane="-86/0_0" parking="true" endPos="43.55" until="499"/>
	</vehicle>
	<vehicle id="689" type="RSU" depart="0" departPos="147.52" color="255,0,0">
		<route edges="-6/1"/>
		<stop lane="-6/1_0" parking="true" endPos="147.52" until="499"/>
	</vehicle>
	<vehicle id="690" type="RSU" depart="0" departPos="53.04" color="255,0,0">
		<route edges="675"/>
		<stop lane="675_0" parking="true" endPos="53.04" until="499"/>
	</vehicle>
	<vehicle id="691" type="RSU" depart="0" departPos="37.71" color="255,0,0">
		<route edges="-29/3"/>
		<stop lane="-29/3_0" parking="true" endPos="37.71" until="499"/>
	</vehicle>
	<vehicle id="692" type="RSU" depart="0" departPos="57.52" color="255,0,0">
		<route edges="615/5"/>
		<stop lane="615/5_0" parking="true" endPos="57.52" until="499"/>
	</vehicle>
	<vehicle id="693" type="RSU" depart="0" departPos="53.63" color="255,0,0">
		<route edges="141"/>
		<stop lane="141_0" parking="true" endPos="53.63" until="499"/>
	</vehicle>
	<vehicle id="694" type="RSU" depart="0" departPos="254.22" color="255,0,0">
		<route edges="650/0"/>
		<stop lane="650/0_0" parking="true" endPos="254.22" until="499"/>
	</vehicle>
	<vehicle id="695" type="RSU" depart="0" departPos="311.12" color="255,0,0">
		<route edges="-112/0"/>
		<stop lane="-112/0_0" parking="true" endPos="311.12" until="499"/>
	</vehicle>
	<vehicle id="696" type="RSU" depart="0" departPos="439.76" color="255,0,0">
		<route edges="705/1"/>
		<stop lane="705/1_0" parking="true" endPos="439.76" until="499"/>
	</vehicle>
	<vehicle id="697" type="RSU" depart="0" departPos="140.85" color="255,0,0">
		<route edges="13/8"/>
		<stop lane="13/8_0" parking="true" endPos="140.85" until="499"/>
	</vehicle>
	<vehicle id="698" type="RSU" depart="0" departPos="47.02" color="255,0,0">
		<route edges="551"/>
		<stop lane="551_0" parking="true" endPos="47.02" until="499"/>
	</vehicle>
	<vehicle id="699" type="RSU" depart="0" departPos="201.96" color="255,0,0">
		<route edges="-6/3"/>
		<stop lane="-6/3_0" parking="true" endPos="201.96" until="499"/>
	</vehicle>
	<vehicle id="700" type="RSU" depart="0" departPos="37.41" color="255,0,0">
		<route edges="581/0"/>
		<stop lane="581/0_0" parking="true" endPos="37.41" until="499"/>
	</vehicle>
	<vehicle id="701" type="RSU" depart="0" departPos="181.07" color="255,0,0">
		<route edges="592/2"/>
		<stop lane="592/2_0" parking="true" endPos="181.07" until="499"/>
	</vehicle>
	<vehicle id="702" type="RSU" depart="0" departPos="135.09" color="255,0,0">
		<route edges="-620/1"/>
		<stop lane="-620/1_0" parking="true" endPos="135.09" until="499"/>
	</vehicle>
	<vehicle id="703" type="RSU" depart="0" departPos="140.23" color="255,0,0">
		<route edges="586/3"/>
		<stop lane="586/3_0" parking="true" endPos="140.23" until="499"/>
	</vehicle>
	<vehicle id="704" type="RSU" depart="0" departPos="14.37" color="255,0,0">
		<route edges="60/0"/>
		<stop lane="60/0_0" parking="true" endPos="14.37" until="499"/>
	</vehicle>
	<vehicle id="705" type="RSU" depart="0" departPos="242.52" color="255,0,0">
		<route edges="32/0"/>
		<stop lane="32/0_0" parking="true" endPos="242.52" until="499"/>
	</vehicle>
	<vehicle id="706" type="RSU" depart="0" departPos="179.37" color="255,0,0">
		<route edges="-13/1"/>
		<stop lane="-13/1_0" parking="true" endPos="179.37" until="499"/>
	</vehicle>
	<vehicle id="707" type="RSU" depart="0" departPos="138.57" color="255,0,0">
		<route edges="615/9"/>
		<stop lane="615/9_0" parking="true" endPos="138.57" until="499"/>
	</vehicle>
	<vehicle id="708" type="RSU" depart="0" departPos="119.77" color="255,0,0">
		<route edges="673/0"/>
		<stop lane="673/0_0" parking="true" endPos="119.77" until="499"/>
	</vehicle>
	<vehicle id="709" type="RSU" depart="0" departPos="142.0" color="255,0,0">
		<route edges="658/2"/>
		<stop lane="658/2_0" parking="true" endPos="142.0" until="499"/>
	</vehicle>
	<vehicle id="710" type="RSU" depart="0" departPos="218.81" color="255,0,0">
		<route edges="697/1"/>
		<stop lane="697/1_0" parking="true" endPos="218.81" until="499"/>
	</vehicle>
	<vehicle id="711" type="RSU" depart="0" departPos="26.56" color="255,0,0">
		<route edges="-92/1"/>
		<stop lane="-92/1_0" parking="true" endPos="26.56" until="499"/>
	</vehicle>
	<vehicle id="712" type="RSU" depart="0" departPos="922.49" color="255,0,0">
		<route edges="678"/>
		<stop lane="678_0" parking="true" endPos="922.49" until="499"/>
	</vehicle>
	<vehicle id="713" type="RSU" depart="0" departPos="18.75" color="255,0,0">
		<route edges="547/1"/>
		<stop lane="547/1_0" parking="true" endPos="18.75" until="499"/>
	</vehicle>
	<vehicle id="714" type="RSU" depart="0" departPos="68.54" color="255,0,0">
		<route edges="615/3"/>
		<stop lane="615/3_0" parking="true" endPos="68.54" until="499"/>
	</vehicle>
	<vehicle id="715" type="RSU" depart="0" departPos="1816.35" color="255,0,0">
		<route edges="665/0"/>
		<stop lane="665/0_0" parking="true" endPos="1816.35" until="499"/>
	</vehicle>
	<vehicle id="716" type="RSU" depart="0" departPos="110.68" color="255,0,0">
		<route edges="682"/>
		<stop lane="682_0" parking="true" endPos="110.68" until="499"/>
	</vehicle>
	<vehicle id="717" type="RSU" depart="0" departPos="488.02" color="255,0,0">
		<route edges="697/0"/>
		<stop lane="697/0_0" parking="true" endPos="488.02" until="499"/>
	</vehicle>
	<vehicle id="718" type="RSU" depart="0" departPos="31.62" color="255,0,0">
		<route edges="613"/>
		<stop lane="613_0" parking="true" endPos="31.62" until="499"/>
	</vehicle>
	<vehicle id="719" type="RSU" depart="0" departPos="13.32" color="255,0,0">
		<route edges="667/3"/>
		<stop lane="667/3_0" parking="true" endPos="13.32" until="499"/>
	</vehicle>
	<vehicle id="720" type="RSU" depart="0" departPos="253.53" color="255,0,0">
		<route edges="701/1"/>
		<stop lane="701/1_0" parking="true" endPos="253.53" until="499"/>
	</vehicle>
	<vehicle id="721" type="RSU" depart="0" departPos="307.2" color="255,0,0">
		<route edges="685/4"/>
		<stop lane="685/4_0" parking="true" endPos="307.2" until="499"/>
	</vehicle>
	<vehicle id="722" type="RSU" depart="0" departPos="56.57" color="255,0,0">
		<route edges="-597"/>
		<stop lane="-597_0" parking="true" endPos="56.57" until="499"/>
	</vehicle>
	<vehicle id="723" type="RSU" depart="0" departPos="362.57" color="255,0,0">
		<route edges="672"/>
		<stop lane="672_0" parking="true" endPos="362.57" until="499"/>
	</vehicle>
	<vehicle id="724" type="RSU" depart="0" departPos="27.06" color="255,0,0">
		<route edges="617/4"/>
		<stop lane="617/4_0" parking="true" endPos="27.06" until="499"/>
	</vehicle>
	<vehicle id="725" type="RSU" depart="0" departPos="672.11" color="255,0,0">
		<route edges="706/2"/>
		<stop lane="706/2_0" parking="true" endPos="672.11" until="499"/>
	</vehicle>
	<vehicle id="726" type="RSU" depart="0" departPos="369.25" color="255,0,0">
		<route edges="8/2"/>
		<stop lane="8/2_0" parking="true" endPos="369.25" until="499"/>
	</vehicle>
	<vehicle id="727" type="RSU" depart="0" departPos="143.33" color="255,0,0">
		<route edges="665/1"/>
		<stop lane="665/1_0" parking="true" endPos="143.33" until="499"/>
	</vehicle>
	<vehicle id="728" type="RSU" depart="0" departPos="238.23" color="255,0,0">
		<route edges="708/0"/>
		<stop lane="708/0_0" parking="true" endPos="238.23" until="499"/>
	</vehicle>
	<vehicle id="729" type="RSU" depart="0" departPos="31.3" color="255,0,0">
		<route edges="11/2"/>
		<stop lane="11/2_0" parking="true" endPos="31.3" until="499"/>
	</vehicle>
	<vehicle id="730" type="RSU" depart="0" departPos="196.15" color="255,0,0">
		<route edges="602/0"/>
		<stop lane="602/0_0" parking="true" endPos="196.15" until="499"/>
	</vehicle>
	<vehicle id="731" type="RSU" depart="0" departPos="68.23" color="255,0,0">
		<route edges="13/6"/>
		<stop lane="13/6_0" parking="true" endPos="68.23" until="499"/>
	</vehicle>
	<vehicle id="732" type="RSU" depart="0" departPos="82.05" color="255,0,0">
		<route edges="602/2"/>
		<stop lane="602/2_0" parking="true" endPos="82.05" until="499"/>
	</vehicle>
	<vehicle id="733" type="RSU" depart="0" departPos="199.25" color="255,0,0">
		<route edges="717/2"/>
		<stop lane="717/2_0" parking="true" endPos="199.25" until="499"/>
	</vehicle>
	<vehicle id="734" type="RSU" depart="0" departPos="336.39" color="255,0,0">
		<route edges="712/1"/>
		<stop lane="712/1_0" parking="true" endPos="336.39" until="499"/>
	</vehicle>
	<vehicle id="735" type="RSU" depart="0" departPos="517.53" color="255,0,0">
		<route edges="819"/>
		<stop lane="819_0" parking="true" endPos="517.53" until="499"/>
	</vehicle>
	<vehicle id="736" type="RSU" depart="0" departPos="398.55" color="255,0,0">
		<route edges="-38/1"/>
		<stop lane="-38/1_0" parking="true" endPos="398.55" until="499"/>
	</vehicle>
	<vehicle id="737" type="RSU" depart="0" departPos="137.06" color="255,0,0">
		<route edges="732"/>
		<stop lane="732_0" parking="true" endPos="137.06" until="499"/>
	</vehicle>
	<vehicle id="738" type="RSU" depart="0" departPos="175.89" color="255,0,0">
		<route edges="-62/0"/>
		<stop lane="-62/0_0" parking="true" endPos="175.89" until="499"/>
	</vehicle>
	<vehicle id="739" type="RSU" depart="0" departPos="223.98" color="255,0,0">
		<route edges="2/4"/>
		<stop lane="2/4_0" parking="true" endPos="223.98" until="499"/>
	</vehicle>
	<vehicle id="740" type="RSU" depart="0" departPos="550.87" color="255,0,0">
		<route edges="603"/>
		<stop lane="603_0" parking="true" endPos="550.87" until="499"/>
	</vehicle>
	<vehicle id="741" type="RSU" depart="0" departPos="308.71" color="255,0,0">
		<route edges="564/1"/>
		<stop lane="564/1_0" parking="true" endPos="308.71" until="499"/>
	</vehicle>
	<vehicle id="742" type="RSU" depart="0" departPos="301.78" color="255,0,0">
		<route edges="628/0"/>
		<stop lane="628/0_0" parking="true" endPos="301.78" until="499"/>
	</vehicle>
	<vehicle id="743" type="RSU" depart="0" departPos="11.26" color="255,0,0">
		<route edges="544/1+650/2"/>
		<stop lane="544/1+650/2_0" parking="true" endPos="11.26" until="499"/>
	</vehicle>
	<vehicle id="744" type="RSU" depart="0" departPos="453.67" color="255,0,0">
		<route edges="660/0"/>
		<stop lane="660/0_0" parking="true" endPos="453.67" until="499"/>
	</vehicle>
	<vehicle id="745" type="RSU" depart="0" departPos="139.02" color="255,0,0">
		<route edges="-29/4"/>
		<stop lane="-29/4_0" parking="true" endPos="139.02" until="499"/>
	</vehicle>
	<vehicle id="746" type="RSU" depart="0" departPos="20.54" color="255,0,0">
		<route edges="713"/>
		<stop lane="713_0" parking="true" endPos="20.54" until="499"/>
	</vehicle>
	<vehicle id="747" type="RSU" depart="0" departPos="115.83" color="255,0,0">
		<route edges="524/1"/>
		<stop lane="524/1_0" parking="true" endPos="115.83" until="499"/>
	</vehicle>
	<vehicle id="748" type="RSU" depart="0" departPos="116.09" color="255,0,0">
		<route edges="-123"/>
		<stop lane="-123_0" parking="true" endPos="116.09" until="499"/>
	</vehicle>
	<vehicle id="749" type="RSU" depart="0" departPos="82.31" color="255,0,0">
		<route edges="-205/1"/>
		<stop lane="-205/1_0" parking="true" endPos="82.31" until="499"/>
	</vehicle>
	<vehicle id="750" type="RSU" depart="0" departPos="133.06" color="255,0,0">
		<route edges="-580/0"/>
		<stop lane="-580/0_0" parking="true" endPos="133.06" until="499"/>
	</vehicle>
	<vehicle id="751" type="RSU" depart="0" departPos="111.64" color="255,0,0">
		<route edges="706/6"/>
		<stop lane="706/6_0" parking="true" endPos="111.64" until="499"/>
	</vehicle>
	<vehicle id="752" type="RSU" depart="0" departPos="28.12" color="255,0,0">
		<route edges="582/2"/>
		<stop lane="582/2_0" parking="true" endPos="28.12" until="499"/>
	</vehicle>
	<vehicle id="753" type="RSU" depart="0" departPos="242.22" color="255,0,0">
		<route edges="137/0"/>
		<stop lane="137/0_0" parking="true" endPos="242.22" until="499"/>
	</vehicle>
	<vehicle id="754" type="RSU" depart="0" departPos="391.76" color="255,0,0">
		<route edges="674/2"/>
		<stop lane="674/2_0" parking="true" endPos="391.76" until="499"/>
	</vehicle>
	<vehicle id="755" type="RSU" depart="0" departPos="287.09" color="255,0,0">
		<route edges="555/0"/>
		<stop lane="555/0_0" parking="true" endPos="287.09" until="499"/>
	</vehicle>
	<vehicle id="756" type="RSU" depart="0" departPos="41.06" color="255,0,0">
		<route edges="611"/>
		<stop lane="611_0" parking="true" endPos="41.06" until="499"/>
	</vehicle>
	<vehicle id="757" type="RSU" depart="0" departPos="26.87" color="255,0,0">
		<route edges="598"/>
		<stop lane="598_0" parking="true" endPos="26.87" until="499"/>
	</vehicle>
	<vehicle id="758" type="RSU" depart="0" departPos="105.81" color="255,0,0">
		<route edges="586/2"/>
		<stop lane="586/2_0" parking="true" endPos="105.81" until="499"/>
	</vehicle>
	<vehicle id="759" type="RSU" depart="0" departPos="52.39" color="255,0,0">
		<route edges="-768/2"/>
		<stop lane="-768/2_0" parking="true" endPos="52.39" until="499"/>
	</vehicle>
	<vehicle id="760" type="RSU" depart="0" departPos="114.68" color="255,0,0">
		<route edges="703/2"/>
		<stop lane="703/2_0" parking="true" endPos="114.68" until="499"/>
	</vehicle>
	<vehicle id="761" type="RSU" depart="0" departPos="124.64" color="255,0,0">
		<route edges="491/2"/>
		<stop lane="491/2_0" parking="true" endPos="124.64" until="499"/>
	</vehicle>
	<vehicle id="762" type="RSU" depart="0" departPos="35.88" color="255,0,0">
		<route edges="-644"/>
		<stop lane="-644_0" parking="true" endPos="35.88" until="499"/>
	</vehicle>
	<vehicle id="763" type="RSU" depart="0" departPos="41.86" color="255,0,0">
		<route edges="679"/>
		<stop lane="679_0" parking="true" endPos="41.86" until="499"/>
	</vehicle>
	<vehicle id="764" type="RSU" depart="0" departPos="21.17" color="255,0,0">
		<route edges="697/2"/>
		<stop lane="697/2_0" parking="true" endPos="21.17" until="499"/>
	</vehicle>
	<vehicle id="765" type="RSU" depart="0" departPos="45.98" color="255,0,0">
		<route edges="667/1"/>
		<stop lane="667/1_0" parking="true" endPos="45.98" until="499"/>
	</vehicle>