<?xml version="1.0"?>
<!-- generated on 2017-07-15 11:15:15 by $Id: randomTrips.py 18756 2015-08-31 19:16:33Z behrisch $
  options: -n input_net.net.xml -e 22.4 -p 0.05 <doubleminus>trip-attributes=departLane="best"
-->
<trips>
	<trip id="2" depart="0.10" from="2/0to1/0" to="2/1to1/1" departLane="best"/>
	<trip id="7" depart="0.35" from="0/1to0/2" to="1/1to2/1" departLane="best"/>
	<trip id="11" depart="0.55" from="0/1to0/0" to="1/3to0/3" departLane="best"/>
	<trip id="12" depart="0.60" from="3/0to3/1" to="2/3to3/3" departLane="best"/>
	<trip id="14" depart="0.70" from="0/3to1/3" to="3/0to2/0" departLane="best"/>
	<trip id="18" depart="0.90" from="3/0to3/1" to="0/1to0/2" departLane="best"/>
	<trip id="19" depart="0.95" from="0/1to0/2" to="1/2to1/1" departLane="best"/>
	<trip id="21" depart="1.05" from="1/1to1/2" to="1/3to0/3" departLane="best"/>
	<trip id="24" depart="1.20" from="1/1to1/0" to="2/1to3/1" departLane="best"/>
	<trip id="25" depart="1.25" from="2/3to3/3" to="1/2to1/3" departLane="best"/>
	<trip id="27" depart="1.35" from="3/3to2/3" to="1/0to0/0" departLane="best"/>
	<trip id="28" depart="1.40" from="3/0to3/1" to="0/0to0/1" departLane="best"/>
	<trip id="32" depart="1.60" from="3/3to3/2" to="1/2to2/2" departLane="best"/>
	<trip id="33" depart="1.65" from="3/0to3/1" to="2/3to2/2" departLane="best"/>
	<trip id="34" depart="1.70" from="2/3to3/3" to="2/1to2/2" departLane="best"/>
	<trip id="36" depart="1.80" from="3/2to3/1" to="3/2to3/1" departLane="best"/>
	<trip id="39" depart="1.95" from="0/0to0/1" to="2/2to3/2" departLane="best"/>
	<trip id="40" depart="2.00" from="0/1to0/2" to="2/2to2/3" departLane="best"/>
	<trip id="41" depart="2.05" from="3/3to3/2" to="0/1to0/0" departLane="best"/>
	<trip id="42" depart="2.10" from="0/1to0/2" to="2/0to2/1" departLane="best"/>
	<trip id="43" depart="2.15" from="2/2to2/3" to="2/3to1/3" departLane="best"/>
	<trip id="45" depart="2.25" from="3/3to3/2" to="0/1to0/0" departLane="best"/>
	<trip id="46" depart="2.30" from="3/1to3/2" to="2/1to1/1" departLane="best"/>
	<trip id="49" depart="2.45" from="1/1to1/0" to="3/2to2/2" departLane="best"/>
	<trip id="51" depart="2.55" from="1/3to0/3" to="1/1to0/1" departLane="best"/>
	<trip id="52" depart="2.60" from="3/0to3/1" to="0/1to0/2" departLane="best"/>
	<trip id="53" depart="2.65" from="3/1to3/2" to="1/1to0/1" departLane="best"/>
	<trip id="54" depart="2.70" from="2/0to1/0" to="3/1to2/1" departLane="best"/>
	<trip id="55" depart="2.75" from="0/1to0/0" to="0/2to1/2" departLane="best"/>
	<trip id="56" depart="2.80" from="2/2to2/3" to="2/1to2/2" departLane="best"/>
	<trip id="57" depart="2.85" from="0/2to1/2" to="3/2to3/1" departLane="best"/>
	<trip id="58" depart="2.90" from="1/1to1/2" to="0/2to0/3" departLane="best"/>
	<trip id="59" depart="2.95" from="0/3to1/3" to="2/0to2/1" departLane="best"/>
	<trip id="60" depart="3.00" from="2/2to2/3" to="1/1to1/0" departLane="best"/>
	<trip id="66" depart="3.30" from="2/2to2/3" to="1/2to2/2" departLane="best"/>
	<trip id="68" depart="3.40" from="2/3to2/2" to="3/1to2/1" departLane="best"/>
	<trip id="69" depart="3.45" from="0/2to1/2" to="2/2to3/2" departLane="best"/>
	<trip id="71" depart="3.55" from="1/2to0/2" to="1/2to2/2" departLane="best"/>
	<trip id="72" depart="3.60" from="3/3to3/2" to="3/3to3/2" departLane="best"/>
	<trip id="75" depart="3.75" from="3/1to3/2" to="1/0to2/0" departLane="best"/>
	<trip id="76" depart="3.80" from="0/1to0/2" to="0/2to1/2" departLane="best"/>
	<trip id="77" depart="3.85" from="1/2to1/1" to="3/0to2/0" departLane="best"/>
	<trip id="78" depart="3.90" from="1/1to1/2" to="1/1to0/1" departLane="best"/>
	<trip id="79" depart="3.95" from="3/0to2/0" to="0/0to0/1" departLane="best"/>
	<trip id="80" depart="4.00" from="3/3to3/2" to="2/3to1/3" departLane="best"/>
	<trip id="82" depart="4.10" from="1/0to2/0" to="3/1to3/2" departLane="best"/>
	<trip id="83" depart="4.15" from="3/1to2/1" to="2/3to1/3" departLane="best"/>
	<trip id="84" depart="4.20" from="3/1to2/1" to="1/1to2/1" departLane="best"/>
	<trip id="85" depart="4.25" from="3/2to2/2" to="2/2to1/2" departLane="best"/>
	<trip id="86" depart="4.30" from="1/0to0/0" to="0/0to0/1" departLane="best"/>
	<trip id="87" depart="4.35" from="0/1to0/0" to="3/2to3/3" departLane="best"/>
	<trip id="88" depart="4.40" from="0/3to1/3" to="1/2to1/1" departLane="best"/>
	<trip id="91" depart="4.55" from="1/1to1/2" to="2/3to3/3" departLane="best"/>
	<trip id="92" depart="4.60" from="1/0to0/0" to="1/3to1/2" departLane="best"/>
	<trip id="94" depart="4.70" from="2/1to3/1" to="3/1to2/1" departLane="best"/>
	<trip id="95" depart="4.75" from="0/1to0/0" to="3/3to3/2" departLane="best"/>
	<trip id="96" depart="4.80" from="2/0to1/0" to="0/0to1/0" departLane="best"/>
	<trip id="97" depart="4.85" from="0/3to0/2" to="0/2to1/2" departLane="best"/>
	<trip id="99" depart="4.95" from="0/1to1/1" to="0/0to1/0" departLane="best"/>
	<trip id="101" depart="5.05" from="1/1to0/1" to="1/3to2/3" departLane="best"/>
	<trip id="102" depart="5.10" from="2/2to1/2" to="1/3to0/3" departLane="best"/>
	<trip id="103" depart="5.15" from="1/3to1/2" to="0/2to0/3" departLane="best"/>
	<trip id="104" depart="5.20" from="2/0to1/0" to="2/2to3/2" departLane="best"/>
	<trip id="105" depart="5.25" from="0/0to0/1" to="2/3to2/2" departLane="best"/>
	<trip id="106" depart="5.30" from="2/2to2/1" to="2/1to3/1" departLane="best"/>
	<trip id="107" depart="5.35" from="1/2to1/3" to="3/0to3/1" departLane="best"/>
	<trip id="108" depart="5.40" from="3/2to2/2" to="0/0to0/1" departLane="best"/>
	<trip id="109" depart="5.45" from="0/1to0/0" to="3/1to3/2" departLane="best"/>
	<trip id="110" depart="5.50" from="2/0to2/1" to="0/0to1/0" departLane="best"/>
	<trip id="111" depart="5.55" from="1/1to1/2" to="1/1to1/2" departLane="best"/>
	<trip id="112" depart="5.60" from="1/3to0/3" to="1/1to1/0" departLane="best"/>
	<trip id="113" depart="5.65" from="1/2to1/1" to="1/2to1/1" departLane="best"/>
	<trip id="114" depart="5.70" from="0/1to0/0" to="0/1to1/1" departLane="best"/>
	<trip id="115" depart="5.75" from="2/3to2/2" to="3/2to3/3" departLane="best"/>
	<trip id="117" depart="5.85" from="1/1to2/1" to="2/3to2/2" departLane="best"/>
	<trip id="118" depart="5.90" from="2/3to1/3" to="1/0to0/0" departLane="best"/>
	<trip id="119" depart="5.95" from="1/3to1/2" to="3/2to2/2" departLane="best"/>
	<trip id="120" depart="6.00" from="3/2to3/3" to="3/1to2/1" departLane="best"/>
	<trip id="121" depart="6.05" from="3/2to3/1" to="0/1to0/0" departLane="best"/>
	<trip id="122" depart="6.10" from="1/3to0/3" to="2/1to2/0" departLane="best"/>
	<trip id="123" depart="6.15" from="0/3to1/3" to="3/3to3/2" departLane="best"/>
	<trip id="124" depart="6.20" from="1/1to1/0" to="3/2to3/1" departLane="best"/>
	<trip id="125" depart="6.25" from="2/0to2/1" to="1/0to1/1" departLane="best"/>
	<trip id="126" depart="6.30" from="3/2to2/2" to="2/1to2/0" departLane="best"/>
	<trip id="127" depart="6.35" from="2/1to1/1" to="1/1to0/1" departLane="best"/>
	<trip id="129" depart="6.45" from="0/2to1/2" to="1/1to1/0" departLane="best"/>
	<trip id="130" depart="6.50" from="0/1to1/1" to="2/3to2/2" departLane="best"/>
	<trip id="131" depart="6.55" from="3/2to3/3" to="1/2to1/1" departLane="best"/>
	<trip id="132" depart="6.60" from="2/2to1/2" to="1/3to0/3" departLane="best"/>
	<trip id="133" depart="6.65" from="1/0to1/1" to="3/2to3/3" departLane="best"/>
	<trip id="135" depart="6.75" from="1/0to2/0" to="1/0to1/1" departLane="best"/>
	<trip id="136" depart="6.80" from="2/2to2/1" to="3/1to2/1" departLane="best"/>
	<trip id="137" depart="6.85" from="0/1to0/0" to="0/3to0/2" departLane="best"/>
	<trip id="139" depart="6.95" from="1/2to0/2" to="0/0to0/1" departLane="best"/>
	<trip id="140" depart="7.00" from="2/1to1/1" to="2/2to3/2" departLane="best"/>
	<trip id="141" depart="7.05" from="1/1to1/0" to="0/0to1/0" departLane="best"/>
	<trip id="142" depart="7.10" from="1/1to1/2" to="1/2to0/2" departLane="best"/>
	<trip id="143" depart="7.15" from="3/0to2/0" to="2/0to2/1" departLane="best"/>
	<trip id="144" depart="7.20" from="3/1to3/2" to="3/1to3/2" departLane="best"/>
	<trip id="145" depart="7.25" from="1/0to2/0" to="3/2to2/2" departLane="best"/>
	<trip id="146" depart="7.30" from="1/2to0/2" to="0/3to1/3" departLane="best"/>
	<trip id="147" depart="7.35" from="1/3to1/2" to="3/1to2/1" departLane="best"/>
	<trip id="148" depart="7.40" from="1/3to0/3" to="2/2to2/1" departLane="best"/>
	<trip id="149" depart="7.45" from="3/0to3/1" to="1/1to0/1" departLane="best"/>
	<trip id="150" depart="7.50" from="1/0to1/1" to="2/0to1/0" departLane="best"/>
	<trip id="151" depart="7.55" from="2/2to1/2" to="0/2to1/2" departLane="best"/>
	<trip id="152" depart="7.60" from="3/0to3/1" to="1/1to1/2" departLane="best"/>
	<trip id="153" depart="7.65" from="2/1to2/2" to="2/0to3/0" departLane="best"/>
	<trip id="154" depart="7.70" from="2/2to3/2" to="1/3to2/3" departLane="best"/>
	<trip id="155" depart="7.75" from="1/0to2/0" to="3/2to3/1" departLane="best"/>
	<trip id="156" depart="7.80" from="1/2to0/2" to="2/0to1/0" departLane="best"/>
	<trip id="157" depart="7.85" from="3/2to3/3" to="1/1to1/2" departLane="best"/>
	<trip id="158" depart="7.90" from="3/0to3/1" to="1/0to1/1" departLane="best"/>
	<trip id="159" depart="7.95" from="2/2to2/1" to="0/0to0/1" departLane="best"/>
	<trip id="161" depart="8.05" from="2/0to2/1" to="1/1to2/1" departLane="best"/>
	<trip id="162" depart="8.10" from="3/0to2/0" to="1/0to1/1" departLane="best"/>
	<trip id="163" depart="8.15" from="2/1to2/0" to="1/1to2/1" departLane="best"/>
	<trip id="164" depart="8.20" from="2/2to1/2" to="2/2to3/2" departLane="best"/>
	<trip id="165" depart="8.25" from="2/1to3/1" to="0/1to0/2" departLane="best"/>
	<trip id="166" depart="8.30" from="2/1to2/2" to="0/2to0/1" departLane="best"/>
	<trip id="167" depart="8.35" from="1/2to0/2" to="3/1to2/1" departLane="best"/>
	<trip id="168" depart="8.40" from="0/2to0/1" to="1/1to0/1" departLane="best"/>
	<trip id="169" depart="8.45" from="1/2to2/2" to="3/0to2/0" departLane="best"/>
	<trip id="170" depart="8.50" from="3/3to2/3" to="1/1to1/0" departLane="best"/>
	<trip id="171" depart="8.55" from="0/2to1/2" to="1/1to1/2" departLane="best"/>
	<trip id="172" depart="8.60" from="2/0to2/1" to="1/2to1/3" departLane="best"/>
	<trip id="173" depart="8.65" from="2/0to1/0" to="0/0to0/1" departLane="best"/>
	<trip id="174" depart="8.70" from="2/2to3/2" to="3/0to3/1" departLane="best"/>
	<trip id="175" depart="8.75" from="2/2to3/2" to="2/0to2/1" departLane="best"/>
	<trip id="176" depart="8.80" from="1/1to0/1" to="0/3to1/3" departLane="best"/>
	<trip id="177" depart="8.85" from="2/3to1/3" to="1/1to0/1" departLane="best"/>
	<trip id="178" depart="8.90" from="3/1to2/1" to="2/1to1/1" departLane="best"/>
	<trip id="179" depart="8.95" from="1/3to2/3" to="2/2to2/1" departLane="best"/>
	<trip id="180" depart="9.00" from="2/1to1/1" to="3/3to3/2" departLane="best"/>
	<trip id="181" depart="9.05" from="1/3to2/3" to="2/2to2/1" departLane="best"/>
	<trip id="182" depart="9.10" from="3/2to3/3" to="2/3to3/3" departLane="best"/>
	<trip id="183" depart="9.15" from="2/3to2/2" to="0/1to0/2" departLane="best"/>
	<trip id="184" depart="9.20" from="0/1to0/0" to="0/3to0/2" departLane="best"/>
	<trip id="185" depart="9.25" from="2/0to1/0" to="3/2to2/2" departLane="best"/>
	<trip id="186" depart="9.30" from="0/3to0/2" to="1/1to1/0" departLane="best"/>
	<trip id="187" depart="9.35" from="0/2to1/2" to="1/3to1/2" departLane="best"/>
	<trip id="188" depart="9.40" from="1/3to2/3" to="0/0to0/1" departLane="best"/>
	<trip id="189" depart="9.45" from="2/1to2/0" to="2/1to3/1" departLane="best"/>
	<trip id="190" depart="9.50" from="2/1to3/1" to="2/1to2/0" departLane="best"/>
	<trip id="191" depart="9.55" from="1/0to2/0" to="1/3to0/3" departLane="best"/>
	<trip id="192" depart="9.60" from="3/0to2/0" to="2/0to2/1" departLane="best"/>
	<trip id="193" depart="9.65" from="1/3to0/3" to="0/1to1/1" departLane="best"/>
	<trip id="194" depart="9.70" from="2/2to1/2" to="2/3to1/3" departLane="best"/>
	<trip id="195" depart="9.75" from="0/2to0/3" to="0/2to1/2" departLane="best"/>
	<trip id="196" depart="9.80" from="1/2to1/1" to="1/0to0/0" departLane="best"/>
	<trip id="197" depart="9.85" from="2/1to3/1" to="1/0to2/0" departLane="best"/>
	<trip id="198" depart="9.90" from="1/1to0/1" to="2/3to3/3" departLane="best"/>
	<trip id="199" depart="9.95" from="2/3to2/2" to="0/1to1/1" departLane="best"/>
	<trip id="200" depart="10.00" from="1/1to1/0" to="2/3to2/2" departLane="best"/>
	<trip id="201" depart="10.05" from="3/3to2/3" to="2/2to2/1" departLane="best"/>
	<trip id="202" depart="10.10" from="2/3to3/3" to="0/2to1/2" departLane="best"/>
	<trip id="203" depart="10.15" from="2/0to1/0" to="2/3to3/3" departLane="best"/>
	<trip id="204" depart="10.20" from="3/2to3/1" to="1/2to2/2" departLane="best"/>
	<trip id="205" depart="10.25" from="0/1to0/0" to="0/2to0/1" departLane="best"/>
	<trip id="206" depart="10.30" from="1/2to2/2" to="2/3to2/2" departLane="best"/>
	<trip id="208" depart="10.40" from="0/2to1/2" to="1/1to1/2" departLane="best"/>
	<trip id="209" depart="10.45" from="2/2to1/2" to="1/1to0/1" departLane="best"/>
	<trip id="210" depart="10.50" from="3/0to3/1" to="0/1to0/2" departLane="best"/>
	<trip id="211" depart="10.55" from="3/2to3/3" to="2/3to3/3" departLane="best"/>
	<trip id="212" depart="10.60" from="2/3to3/3" to="0/0to0/1" departLane="best"/>
	<trip id="213" depart="10.65" from="3/0to3/1" to="1/2to2/2" departLane="best"/>
	<trip id="214" depart="10.70" from="1/0to1/1" to="1/3to0/3" departLane="best"/>
	<trip id="215" depart="10.75" from="2/3to1/3" to="3/0to2/0" departLane="best"/>
	<trip id="216" depart="10.80" from="2/3to1/3" to="2/3to1/3" departLane="best"/>
	<trip id="217" depart="10.85" from="3/3to2/3" to="0/2to0/3" departLane="best"/>
	<trip id="218" depart="10.90" from="1/3to2/3" to="0/2to0/3" departLane="best"/>
	<trip id="219" depart="10.95" from="2/0to3/0" to="0/1to1/1" departLane="best"/>
	<trip id="220" depart="11.00" from="3/1to3/0" to="2/1to1/1" departLane="best"/>
	<trip id="221" depart="11.05" from="2/2to2/3" to="1/3to1/2" departLane="best"/>
	<trip id="222" depart="11.10" from="0/1to1/1" to="2/1to2/2" departLane="best"/>
	<trip id="223" depart="11.15" from="2/3to1/3" to="0/1to0/0" departLane="best"/>
	<trip id="224" depart="11.20" from="2/1to2/0" to="3/2to3/3" departLane="best"/>
	<trip id="225" depart="11.25" from="2/2to1/2" to="2/3to2/2" departLane="best"/>
	<trip id="226" depart="11.30" from="3/2to2/2" to="3/2to2/2" departLane="best"/>
	<trip id="227" depart="11.35" from="1/1to2/1" to="3/2to3/3" departLane="best"/>
	<trip id="228" depart="11.40" from="0/1to0/0" to="0/3to1/3" departLane="best"/>
	<trip id="229" depart="11.45" from="1/3to1/2" to="0/2to0/1" departLane="best"/>
	<trip id="230" depart="11.50" from="3/2to3/3" to="0/2to1/2" departLane="best"/>
	<trip id="231" depart="11.55" from="0/3to0/2" to="0/0to1/0" departLane="best"/>
	<trip id="232" depart="11.60" from="2/1to1/1" to="1/3to1/2" departLane="best"/>
	<trip id="233" depart="11.65" from="1/1to1/0" to="0/3to1/3" departLane="best"/>
	<trip id="234" depart="11.70" from="2/1to3/1" to="0/0to1/0" departLane="best"/>
	<trip id="235" depart="11.75" from="2/2to1/2" to="1/0to2/0" departLane="best"/>
	<trip id="236" depart="11.80" from="1/0to0/0" to="2/2to3/2" departLane="best"/>
	<trip id="237" depart="11.85" from="0/1to0/2" to="3/1to3/0" departLane="best"/>
	<trip id="238" depart="11.90" from="3/2to3/1" to="1/2to2/2" departLane="best"/>
	<trip id="239" depart="11.95" from="3/0to2/0" to="3/0to2/0" departLane="best"/>
	<trip id="240" depart="12.00" from="2/2to2/1" to="1/1to0/1" departLane="best"/>
	<trip id="241" depart="12.05" from="2/1to3/1" to="1/2to1/3" departLane="best"/>
	<trip id="242" depart="12.10" from="1/0to2/0" to="3/0to3/1" departLane="best"/>
	<trip id="243" depart="12.15" from="3/3to3/2" to="1/2to2/2" departLane="best"/>
	<trip id="244" depart="12.20" from="0/1to0/2" to="1/0to0/0" departLane="best"/>
	<trip id="245" depart="12.25" from="3/3to2/3" to="2/1to2/2" departLane="best"/>
	<trip id="246" depart="12.30" from="1/3to1/2" to="0/0to1/0" departLane="best"/>
	<trip id="247" depart="12.35" from="3/1to3/2" to="3/0to2/0" departLane="best"/>
	<trip id="248" depart="12.40" from="2/0to2/1" to="2/3to3/3" departLane="best"/>
	<trip id="249" depart="12.45" from="1/2to1/1" to="3/2to3/3" departLane="best"/>
	<trip id="250" depart="12.50" from="1/1to1/0" to="1/1to1/0" departLane="best"/>
	<trip id="251" depart="12.55" from="2/3to1/3" to="3/2to3/1" departLane="best"/>
	<trip id="252" depart="12.60" from="2/2to2/3" to="2/2to2/1" departLane="best"/>
	<trip id="253" depart="12.65" from="2/3to2/2" to="2/3to3/3" departLane="best"/>
	<trip id="254" depart="12.70" from="1/3to1/2" to="0/2to0/1" departLane="best"/>
	<trip id="255" depart="12.75" from="1/3to0/3" to="0/3to0/2" departLane="best"/>
	<trip id="256" depart="12.80" from="1/0to2/0" to="0/2to0/3" departLane="best"/>
	<trip id="257" depart="12.85" from="1/1to2/1" to="1/3to2/3" departLane="best"/>
	<trip id="258" depart="12.90" from="0/3to0/2" to="1/2to0/2" departLane="best"/>
	<trip id="259" depart="12.95" from="2/2to2/1" to="0/2to0/1" departLane="best"/>
	<trip id="260" depart="13.00" from="0/2to1/2" to="1/1to2/1" departLane="best"/>
	<trip id="261" depart="13.05" from="1/0to1/1" to="2/1to2/0" departLane="best"/>
	<trip id="262" depart="13.10" from="2/1to1/1" to="3/2to3/1" departLane="best"/>
	<trip id="263" depart="13.15" from="3/3to2/3" to="3/1to3/0" departLane="best"/>
	<trip id="264" depart="13.20" from="0/3to0/2" to="2/3to1/3" departLane="best"/>
	<trip id="265" depart="13.25" from="1/0to1/1" to="1/1to2/1" departLane="best"/>
	<trip id="266" depart="13.30" from="1/2to0/2" to="0/0to1/0" departLane="best"/>
	<trip id="267" depart="13.35" from="3/2to3/3" to="2/1to2/0" departLane="best"/>
	<trip id="268" depart="13.40" from="0/1to0/2" to="1/2to1/1" departLane="best"/>
	<trip id="269" depart="13.45" from="1/0to1/1" to="1/0to0/0" departLane="best"/>
	<trip id="270" depart="13.50" from="3/2to2/2" to="2/2to1/2" departLane="best"/>
	<trip id="271" depart="13.55" from="0/1to0/2" to="2/1to1/1" departLane="best"/>
	<trip id="272" depart="13.60" from="2/2to3/2" to="0/0to0/1" departLane="best"/>
	<trip id="273" depart="13.65" from="3/0to3/1" to="3/1to3/2" departLane="best"/>
	<trip id="274" depart="13.70" from="2/1to3/1" to="0/3to1/3" departLane="best"/>
	<trip id="275" depart="13.75" from="1/2to1/1" to="3/2to3/1" departLane="best"/>
	<trip id="276" depart="13.80" from="0/1to1/1" to="1/2to2/2" departLane="best"/>
	<trip id="277" depart="13.85" from="1/3to1/2" to="3/3to3/2" departLane="best"/>
	<trip id="278" depart="13.90" from="1/1to1/2" to="3/1to2/1" departLane="best"/>
	<trip id="279" depart="13.95" from="3/2to3/1" to="3/0to2/0" departLane="best"/>
	<trip id="280" depart="14.00" from="0/2to0/1" to="0/1to1/1" departLane="best"/>
	<trip id="281" depart="14.05" from="1/3to2/3" to="2/2to2/1" departLane="best"/>
	<trip id="282" depart="14.10" from="1/3to2/3" to="2/0to3/0" departLane="best"/>
	<trip id="283" depart="14.15" from="1/0to0/0" to="1/2to0/2" departLane="best"/>
	<trip id="284" depart="14.20" from="3/3to3/2" to="0/3to1/3" departLane="best"/>
	<trip id="285" depart="14.25" from="3/0to2/0" to="3/0to2/0" departLane="best"/>
	<trip id="286" depart="14.30" from="1/0to1/1" to="2/0to1/0" departLane="best"/>
	<trip id="287" depart="14.35" from="0/2to0/1" to="0/1to1/1" departLane="best"/>
	<trip id="288" depart="14.40" from="2/3to3/3" to="0/1to0/2" departLane="best"/>
	<trip id="289" depart="14.45" from="2/2to3/2" to="3/2to3/3" departLane="best"/>
	<trip id="290" depart="14.50" from="1/0to2/0" to="3/0to3/1" departLane="best"/>
	<trip id="291" depart="14.55" from="0/3to1/3" to="1/2to1/1" departLane="best"/>
	<trip id="292" depart="14.60" from="1/3to2/3" to="2/3to3/3" departLane="best"/>
	<trip id="293" depart="14.65" from="1/0to0/0" to="2/2to2/1" departLane="best"/>
	<trip id="294" depart="14.70" from="2/1to1/1" to="0/3to1/3" departLane="best"/>
	<trip id="295" depart="14.75" from="1/3to2/3" to="2/1to2/2" departLane="best"/>
	<trip id="296" depart="14.80" from="2/2to3/2" to="1/2to1/1" departLane="best"/>
	<trip id="297" depart="14.85" from="3/0to2/0" to="1/2to1/1" departLane="best"/>
	<trip id="298" depart="14.90" from="2/0to3/0" to="1/1to1/0" departLane="best"/>
	<trip id="299" depart="14.95" from="3/3to3/2" to="3/0to2/0" departLane="best"/>
	<trip id="300" depart="15.00" from="3/1to2/1" to="2/3to3/3" departLane="best"/>
	<trip id="301" depart="15.05" from="0/0to0/1" to="2/0to2/1" departLane="best"/>
	<trip id="302" depart="15.10" from="0/1to0/0" to="1/2to2/2" departLane="best"/>
	<trip id="303" depart="15.15" from="2/1to3/1" to="1/0to2/0" departLane="best"/>
	<trip id="304" depart="15.20" from="1/3to2/3" to="1/0to2/0" departLane="best"/>
	<trip id="305" depart="15.25" from="1/3to0/3" to="1/3to2/3" departLane="best"/>
	<trip id="306" depart="15.30" from="2/2to2/3" to="1/3to2/3" departLane="best"/>
	<trip id="307" depart="15.35" from="0/3to1/3" to="0/1to0/2" departLane="best"/>
	<trip id="308" depart="15.40" from="0/2to0/1" to="3/1to2/1" departLane="best"/>
	<trip id="309" depart="15.45" from="0/1to0/0" to="2/3to2/2" departLane="best"/>
	<trip id="310" depart="15.50" from="1/1to2/1" to="2/0to3/0" departLane="best"/>
	<trip id="311" depart="15.55" from="2/2to1/2" to="3/3to2/3" departLane="best"/>
	<trip id="312" depart="15.60" from="1/1to2/1" to="3/3to2/3" departLane="best"/>
	<trip id="313" depart="15.65" from="2/0to1/0" to="1/0to0/0" departLane="best"/>
	<trip id="314" depart="15.70" from="1/3to1/2" to="0/2to0/1" departLane="best"/>
	<trip id="315" depart="15.75" from="1/0to1/1" to="0/0to1/0" departLane="best"/>
	<trip id="316" depart="15.80" from="3/2to3/1" to="1/3to1/2" departLane="best"/>
	<trip id="317" depart="15.85" from="0/0to0/1" to="1/1to1/0" departLane="best"/>
	<trip id="318" depart="15.90" from="2/2to2/3" to="0/1to0/0" departLane="best"/>
	<trip id="319" depart="15.95" from="3/1to2/1" to="2/3to1/3" departLane="best"/>
	<trip id="320" depart="16.00" from="1/1to2/1" to="1/3to1/2" departLane="best"/>
	<trip id="321" depart="16.05" from="3/0to3/1" to="3/2to3/3" departLane="best"/>
	<trip id="322" depart="16.10" from="2/0to1/0" to="1/0to1/1" departLane="best"/>
	<trip id="323" depart="16.15" from="0/2to0/3" to="0/1to0/0" departLane="best"/>
	<trip id="324" depart="16.20" from="1/1to0/1" to="0/2to0/1" departLane="best"/>
	<trip id="325" depart="16.25" from="0/0to1/0" to="1/0to2/0" departLane="best"/>
	<trip id="326" depart="16.30" from="0/0to1/0" to="3/2to2/2" departLane="best"/>
	<trip id="327" depart="16.35" from="2/0to3/0" to="2/1to1/1" departLane="best"/>
	<trip id="328" depart="16.40" from="2/1to3/1" to="3/3to3/2" departLane="best"/>
	<trip id="329" depart="16.45" from="2/3to1/3" to="3/2to2/2" departLane="best"/>
	<trip id="330" depart="16.50" from="3/2to3/1" to="2/1to2/0" departLane="best"/>
	<trip id="331" depart="16.55" from="3/0to2/0" to="1/2to1/3" departLane="best"/>
	<trip id="332" depart="16.60" from="3/3to2/3" to="2/0to2/1" departLane="best"/>
	<trip id="333" depart="16.65" from="2/0to2/1" to="2/1to3/1" departLane="best"/>
	<trip id="334" depart="16.70" from="1/3to0/3" to="3/2to2/2" departLane="best"/>
	<trip id="335" depart="16.75" from="2/0to1/0" to="3/2to3/3" departLane="best"/>
	<trip id="336" depart="16.80" from="2/3to2/2" to="1/1to1/2" departLane="best"/>
	<trip id="337" depart="16.85" from="1/2to2/2" to="2/0to3/0" departLane="best"/>
	<trip id="338" depart="16.90" from="0/2to0/1" to="0/2to1/2" departLane="best"/>
	<trip id="339" depart="16.95" from="2/0to1/0" to="1/2to1/1" departLane="best"/>
	<trip id="340" depart="17.00" from="1/3to2/3" to="1/3to2/3" departLane="best"/>
	<trip id="341" depart="17.05" from="3/2to3/3" to="3/1to3/0" departLane="best"/>
	<trip id="342" depart="17.10" from="1/1to2/1" to="1/3to2/3" departLane="best"/>
	<trip id="343" depart="17.15" from="3/1to3/2" to="3/2to3/1" departLane="best"/>
	<trip id="344" depart="17.20" from="1/1to0/1" to="3/2to3/3" departLane="best"/>
	<trip id="345" depart="17.25" from="1/1to1/0" to="1/1to0/1" departLane="best"/>
	<trip id="346" depart="17.30" from="1/3to0/3" to="1/1to2/1" departLane="best"/>
	<trip id="347" depart="17.35" from="0/2to0/1" to="2/1to2/2" departLane="best"/>
	<trip id="348" depart="17.40" from="0/1to0/0" to="2/1to3/1" departLane="best"/>
	<trip id="349" depart="17.45" from="0/3to1/3" to="2/1to3/1" departLane="best"/>
	<trip id="350" depart="17.50" from="0/1to0/0" to="0/3to1/3" departLane="best"/>
	<trip id="351" depart="17.55" from="3/0to2/0" to="1/2to1/1" departLane="best"/>
	<trip id="352" depart="17.60" from="0/3to0/2" to="1/0to2/0" departLane="best"/>
	<trip id="353" depart="17.65" from="1/0to0/0" to="0/1to1/1" departLane="best"/>
	<trip id="354" depart="17.70" from="0/2to1/2" to="0/2to0/3" departLane="best"/>
	<trip id="355" depart="17.75" from="1/2to2/2" to="1/3to0/3" departLane="best"/>
	<trip id="356" depart="17.80" from="2/2to2/1" to="0/0to1/0" departLane="best"/>
	<trip id="357" depart="17.85" from="1/3to2/3" to="1/0to0/0" departLane="best"/>
	<trip id="358" depart="17.90" from="2/1to2/2" to="1/1to2/1" departLane="best"/>
	<trip id="359" depart="17.95" from="0/2to0/1" to="1/3to0/3" departLane="best"/>
	<trip id="360" depart="18.00" from="2/3to1/3" to="0/1to1/1" departLane="best"/>
	<trip id="361" depart="18.05" from="0/1to1/1" to="3/0to2/0" departLane="best"/>
	<trip id="362" depart="18.10" from="1/2to1/3" to="0/1to1/1" departLane="best"/>
	<trip id="363" depart="18.15" from="2/1to3/1" to="1/1to1/0" departLane="best"/>
	<trip id="364" depart="18.20" from="3/3to2/3" to="2/2to1/2" departLane="best"/>
	<trip id="365" depart="18.25" from="1/1to2/1" to="3/1to3/2" departLane="best"/>
	<trip id="366" depart="18.30" from="0/0to0/1" to="1/0to2/0" departLane="best"/>
	<trip id="367" depart="18.35" from="2/3to1/3" to="2/3to2/2" departLane="best"/>
	<trip id="368" depart="18.40" from="0/3to0/2" to="0/2to0/3" departLane="best"/>
	<trip id="369" depart="18.45" from="3/1to2/1" to="2/3to3/3" departLane="best"/>
	<trip id="370" depart="18.50" from="2/2to2/3" to="2/2to2/1" departLane="best"/>
	<trip id="371" depart="18.55" from="3/0to3/1" to="1/0to1/1" departLane="best"/>
	<trip id="372" depart="18.60" from="0/2to1/2" to="3/1to2/1" departLane="best"/>
	<trip id="373" depart="18.65" from="2/2to2/3" to="0/3to0/2" departLane="best"/>
	<trip id="374" depart="18.70" from="1/2to1/3" to="3/2to3/3" departLane="best"/>
	<trip id="375" depart="18.75" from="2/1to2/0" to="3/1to3/2" departLane="best"/>
	<trip id="376" depart="18.80" from="3/3to2/3" to="0/3to0/2" departLane="best"/>
	<trip id="377" depart="18.85" from="0/2to1/2" to="1/2to1/3" departLane="best"/>
	<trip id="378" depart="18.90" from="2/1to2/2" to="1/3to2/3" departLane="best"/>
	<trip id="379" depart="18.95" from="0/3to1/3" to="3/3to3/2" departLane="best"/>
	<trip id="380" depart="19.00" from="3/1to2/1" to="2/1to3/1" departLane="best"/>
	<trip id="381" depart="19.05" from="1/2to0/2" to="2/3to1/3" departLane="best"/>
	<trip id="382" depart="19.10" from="1/2to1/3" to="3/2to3/1" departLane="best"/>
	<trip id="383" depart="19.15" from="1/3to1/2" to="3/2to3/3" departLane="best"/>
	<trip id="384" depart="19.20" from="1/2to0/2" to="1/1to1/0" departLane="best"/>
	<trip id="385" depart="19.25" from="1/2to0/2" to="3/1to3/2" departLane="best"/>
	<trip id="386" depart="19.30" from="2/2to1/2" to="0/2to1/2" departLane="best"/>
	<trip id="387" depart="19.35" from="2/2to2/3" to="2/0to1/0" departLane="best"/>
	<trip id="388" depart="19.40" from="0/0to0/1" to="1/2to1/1" departLane="best"/>
	<trip id="389" depart="19.45" from="2/0to2/1" to="2/1to3/1" departLane="best"/>
	<trip id="390" depart="19.50" from="2/3to1/3" to="2/0to1/0" departLane="best"/>
	<trip id="391" depart="19.55" from="1/0to1/1" to="3/1to2/1" departLane="best"/>
	<trip id="392" depart="19.60" from="2/1to3/1" to="2/0to1/0" departLane="best"/>
	<trip id="393" depart="19.65" from="1/2to0/2" to="2/3to2/2" departLane="best"/>
	<trip id="394" depart="19.70" from="3/2to3/3" to="1/1to1/2" departLane="best"/>
	<trip id="395" depart="19.75" from="1/0to1/1" to="3/0to3/1" departLane="best"/>
	<trip id="396" depart="19.80" from="2/0to2/1" to="1/2to0/2" departLane="best"/>
	<trip id="397" depart="19.85" from="1/2to1/1" to="1/0to2/0" departLane="best"/>
	<trip id="398" depart="19.90" from="3/0to2/0" to="1/1to2/1" departLane="best"/>
	<trip id="399" depart="19.95" from="3/1to3/2" to="2/2to2/3" departLane="best"/>
	<trip id="400" depart="20.00" from="0/1to0/0" to="0/2to0/1" departLane="best"/>
	<trip id="401" depart="20.05" from="1/3to2/3" to="0/3to1/3" departLane="best"/>
	<trip id="402" depart="20.10" from="1/0to1/1" to="1/2to2/2" departLane="best"/>
	<trip id="403" depart="20.15" from="2/3to1/3" to="3/0to3/1" departLane="best"/>
	<trip id="404" depart="20.20" from="0/1to1/1" to="2/2to3/2" departLane="best"/>
	<trip id="405" depart="20.25" from="3/1to3/0" to="2/3to2/2" departLane="best"/>
	<trip id="406" depart="20.30" from="0/1to1/1" to="1/2to2/2" departLane="best"/>
	<trip id="407" depart="20.35" from="2/3to1/3" to="1/2to1/3" departLane="best"/>
	<trip id="408" depart="20.40" from="0/1to1/1" to="1/3to2/3" departLane="best"/>
	<trip id="409" depart="20.45" from="2/0to1/0" to="2/2to3/2" departLane="best"/>
	<trip id="410" depart="20.50" from="2/1to2/2" to="0/2to0/3" departLane="best"/>
	<trip id="411" depart="20.55" from="2/3to3/3" to="1/1to1/2" departLane="best"/>
	<trip id="412" depart="20.60" from="1/0to0/0" to="0/2to0/1" departLane="best"/>
	<trip id="413" depart="20.65" from="2/3to2/2" to="2/2to3/2" departLane="best"/>
	<trip id="414" depart="20.70" from="2/2to2/1" to="2/1to1/1" departLane="best"/>
	<trip id="415" depart="20.75" from="2/1to3/1" to="1/3to1/2" departLane="best"/>
	<trip id="416" depart="20.80" from="2/3to2/2" to="1/1to2/1" departLane="best"/>
	<trip id="417" depart="20.85" from="1/1to2/1" to="1/0to2/0" departLane="best"/>