<?xml version="1.0" encoding="UTF-8"?>

<!-- generated on 01/20/18 20:26:29 by SUMO netgenerate Version 0.24.0
<?xml version="1.0" encoding="UTF-8"?>

<configuration xmlns:xsi="http://www.w3.org/2001/XMLSchema-instance" xsi:noNamespaceSchemaLocation="http://sumo.dlr.de/xsd/netgenerateConfiguration.xsd">

    <grid_network>
        <grid value="true"/>
        <grid.x-number value="5"/>
        <grid.y-number value="6"/>
        <grid.x-length value="800"/>
        <grid.y-length value="1000"/>
    </grid_network>

    <output>
        <output-file value="input_net.net.xml"/>
    </output>

    <building_defaults>
        <default.lanenumber value="4"/>
        <default.speed value="15"/>
    </building_defaults>

</configuration>
-->

<net version="0.13" xmlns:xsi="http://www.w3.org/2001/XMLSchema-instance" xsi:noNamespaceSchemaLocation="http://sumo.dlr.de/xsd/net_file.xsd">

    <location netOffset="0.00,0.00" convBoundary="0.00,0.00,3200.00,5000.00" origBoundary="0.00,0.00,3200.00,5000.00" projParameter="!"/>

    <edge id=":0/0_0" function="internal">
        <lane id=":0/0_0_0" index="0" speed="15.00" length="31.85" shape="-11.55,13.15 -10.01,2.34 -5.38,-5.38 2.34,-10.01 13.15,-11.55"/>
        <lane id=":0/0_0_1" index="1" speed="15.00" length="31.85" shape="-8.25,13.15 -6.91,3.79 -2.90,-2.90 3.79,-6.91 13.15,-8.25"/>
        <lane id=":0/0_0_2" index="2" speed="15.00" length="31.85" shape="-4.95,13.15 -3.82,5.23 -0.43,-0.43 5.23,-3.82 13.15,-4.95"/>
        <lane id=":0/0_0_3" index="3" speed="15.00" length="31.85" shape="-1.65,13.15 -0.73,6.68 2.05,2.05 6.67,-0.72 13.15,-1.65"/>
    </edge>
    <edge id=":0/0_4" function="internal">
        <lane id=":0/0_4_0" index="0" speed="15.00" length="2.69" shape="-1.65,13.15 -0.83,11.91 -0.00,11.50 0.25,11.63"/>
    </edge>
    <edge id=":0/0_10" function="internal">
        <lane id=":0/0_10_0" index="0" speed="15.00" length="2.13" shape="0.25,11.63 0.83,11.91 1.65,13.15"/>
    </edge>
    <edge id=":0/0_5" function="internal">
        <lane id=":0/0_5_0" index="0" speed="15.00" length="10.56" shape="13.15,11.55 12.45,11.65 11.95,11.95 11.65,12.45 11.55,13.15"/>
        <lane id=":0/0_5_1" index="1" speed="15.00" length="10.56" shape="13.15,8.25 11.01,8.56 9.47,9.48 8.56,11.01 8.25,13.15"/>
        <lane id=":0/0_5_2" index="2" speed="15.00" length="10.56" shape="13.15,4.95 9.56,5.46 7.00,7.00 5.46,9.56 4.95,13.15"/>
        <lane id=":0/0_5_3" index="3" speed="15.00" length="10.56" shape="13.15,1.65 8.12,2.37 4.52,4.53 2.37,8.12 1.65,13.15"/>
    </edge>
    <edge id=":0/0_9" function="internal">
        <lane id=":0/0_9_0" index="0" speed="15.00" length="2.20" shape="13.15,1.65 11.91,0.83 11.59,0.19"/>
    </edge>
    <edge id=":0/0_11" function="internal">
        <lane id=":0/0_11_0" index="0" speed="15.00" length="2.62" shape="11.59,0.19 11.50,0.00 11.91,-0.82 13.15,-1.65"/>
    </edge>
    <edge id=":0/1_0" function="internal">
        <lane id=":0/1_0_0" index="0" speed="15.00" length="29.30" shape="-11.55,1014.65 -11.55,1005.95 -11.55,1000.00 -11.55,994.05 -11.55,985.35"/>
        <lane id=":0/1_0_1" index="1" speed="15.00" length="29.30" shape="-8.25,1014.65 -8.25,1005.95 -8.25,1000.00 -8.25,994.05 -8.25,985.35"/>
        <lane id=":0/1_0_2" index="2" speed="15.00" length="29.30" shape="-4.95,1014.65 -4.95,1005.95 -4.95,1000.00 -4.95,994.05 -4.95,985.35"/>
    </edge>
    <edge id=":0/1_3" function="internal">
        <lane id=":0/1_3_0" index="0" speed="15.00" length="9.34" shape="-1.65,1014.65 -0.63,1006.08 0.05,1004.71"/>
        <lane id=":0/1_3_1" index="1" speed="15.00" length="9.34" shape="-1.65,1014.65 -0.63,1007.52 0.05,1006.38"/>
    </edge>
    <edge id=":0/1_5" function="internal">
        <lane id=":0/1_5_0" index="0" speed="15.00" length="2.41" shape="-1.65,1014.65 -0.83,1013.41 -0.00,1013.00"/>
    </edge>
    <edge id=":0/1_19" function="internal">
        <lane id=":0/1_19_0" index="0" speed="15.00" length="18.84" shape="0.05,1004.71 2.42,999.95 7.52,996.27 14.65,995.05"/>
    </edge>
    <edge id=":0/1_20" function="internal">
        <lane id=":0/1_20_0" index="0" speed="15.00" length="17.76" shape="0.05,1006.38 2.42,1002.43 7.52,999.37 14.65,998.35"/>
    </edge>
    <edge id=":0/1_21" function="internal">
        <lane id=":0/1_21_0" index="0" speed="15.00" length="2.41" shape="-0.00,1013.00 0.83,1013.41 1.65,1014.65"/>
    </edge>
    <edge id=":0/1_6" function="internal">
        <lane id=":0/1_6_0" index="0" speed="15.00" length="9.47" shape="14.65,1011.55 13.29,1011.74 12.33,1012.32 11.74,1013.29 11.55,1014.65"/>
        <lane id=":0/1_6_1" index="1" speed="15.00" length="9.47" shape="14.65,1008.25 11.85,1008.65 9.85,1009.85 8.65,1011.85 8.25,1014.65"/>
        <lane id=":0/1_6_2" index="2" speed="15.00" length="9.47" shape="14.65,1008.25 10.41,1008.65 7.38,1009.85 5.56,1011.85 4.95,1014.65"/>
    </edge>
    <edge id=":0/1_9" function="internal">
        <lane id=":0/1_9_0" index="0" speed="15.00" length="28.95" shape="14.65,1004.95 6.07,1003.73 -0.05,1000.05 -3.73,993.92 -4.95,985.35"/>
        <lane id=":0/1_9_1" index="1" speed="15.00" length="28.95" shape="14.65,1001.65 7.52,1000.63 2.43,997.57 -0.63,992.48 -1.65,985.35"/>
    </edge>
    <edge id=":0/1_11" function="internal">
        <lane id=":0/1_11_0" index="0" speed="15.00" length="4.82" shape="14.65,1001.65 13.41,1000.83 13.00,1000.00 13.41,999.17 14.65,998.35"/>
    </edge>
    <edge id=":0/1_12" function="internal">
        <lane id=":0/1_12_0" index="0" speed="15.00" length="6.42" shape="11.55,985.35 11.74,986.71 12.32,987.67 13.29,988.26 14.65,988.45"/>
        <lane id=":0/1_12_1" index="1" speed="15.00" length="6.42" shape="11.55,985.35 11.74,988.15 12.32,990.15 13.29,991.35 14.65,991.75"/>
    </edge>
    <edge id=":0/1_14" function="internal">
        <lane id=":0/1_14_0" index="0" speed="15.00" length="29.30" shape="11.55,985.35 11.55,994.05 11.55,1000.00 11.55,1005.95 11.55,1014.65"/>
        <lane id=":0/1_14_1" index="1" speed="15.00" length="29.30" shape="8.25,985.35 8.25,994.05 8.25,1000.00 8.25,1005.95 8.25,1014.65"/>
        <lane id=":0/1_14_2" index="2" speed="15.00" length="29.30" shape="4.95,985.35 4.95,994.05 4.95,1000.00 4.95,1005.95 4.95,1014.65"/>
        <lane id=":0/1_14_3" index="3" speed="15.00" length="29.30" shape="1.65,985.35 1.65,994.05 1.65,1000.00 1.65,1005.95 1.65,1014.65"/>
    </edge>
    <edge id=":0/1_18" function="internal">
        <lane id=":0/1_18_0" index="0" speed="15.00" length="2.41" shape="1.65,985.35 0.83,986.59 0.00,987.00"/>
    </edge>
    <edge id=":0/1_22" function="internal">
        <lane id=":0/1_22_0" index="0" speed="15.00" length="2.41" shape="0.00,987.00 -0.83,986.59 -1.65,985.35"/>
    </edge>
    <edge id=":0/2_0" function="internal">
        <lane id=":0/2_0_0" index="0" speed="15.00" length="29.30" shape="-11.55,2014.65 -11.55,2005.95 -11.55,2000.00 -11.55,1994.05 -11.55,1985.35"/>
        <lane id=":0/2_0_1" index="1" speed="15.00" length="29.30" shape="-8.25,2014.65 -8.25,2005.95 -8.25,2000.00 -8.25,1994.05 -8.25,1985.35"/>
        <lane id=":0/2_0_2" index="2" speed="15.00" length="29.30" shape="-4.95,2014.65 -4.95,2005.95 -4.95,2000.00 -4.95,1994.05 -4.95,1985.35"/>
    </edge>
    <edge id=":0/2_3" function="internal">
        <lane id=":0/2_3_0" index="0" speed="15.00" length="9.34" shape="-1.65,2014.65 -0.63,2006.07 0.05,2004.71"/>
        <lane id=":0/2_3_1" index="1" speed="15.00" length="9.34" shape="-1.65,2014.65 -0.63,2007.52 0.05,2006.38"/>
    </edge>
    <edge id=":0/2_5" function="internal">
        <lane id=":0/2_5_0" index="0" speed="15.00" length="2.41" shape="-1.65,2014.65 -0.83,2013.41 -0.00,2013.00"/>
    </edge>
    <edge id=":0/2_19" function="internal">
        <lane id=":0/2_19_0" index="0" speed="15.00" length="18.84" shape="0.05,2004.71 2.42,1999.95 7.52,1996.28 14.65,1995.05"/>
    </edge>
    <edge id=":0/2_20" function="internal">
        <lane id=":0/2_20_0" index="0" speed="15.00" length="17.76" shape="0.05,2006.38 2.42,2002.42 7.52,1999.37 14.65,1998.35"/>
    </edge>
    <edge id=":0/2_21" function="internal">
        <lane id=":0/2_21_0" index="0" speed="15.00" length="2.41" shape="-0.00,2013.00 0.83,2013.41 1.65,2014.65"/>
    </edge>
    <edge id=":0/2_6" function="internal">
        <lane id=":0/2_6_0" index="0" speed="15.00" length="9.47" shape="14.65,2011.55 13.29,2011.74 12.32,2012.32 11.74,2013.29 11.55,2014.65"/>
        <lane id=":0/2_6_1" index="1" speed="15.00" length="9.47" shape="14.65,2008.25 11.85,2008.65 9.85,2009.85 8.65,2011.85 8.25,2014.65"/>
        <lane id=":0/2_6_2" index="2" speed="15.00" length="9.47" shape="14.65,2008.25 10.41,2008.65 7.37,2009.85 5.56,2011.85 4.95,2014.65"/>
    </edge>
    <edge id=":0/2_9" function="internal">
        <lane id=":0/2_9_0" index="0" speed="15.00" length="28.95" shape="14.65,2004.95 6.07,2003.72 -0.05,2000.05 -3.73,1993.93 -4.95,1985.35"/>
        <lane id=":0/2_9_1" index="1" speed="15.00" length="28.95" shape="14.65,2001.65 7.52,2000.63 2.43,1997.58 -0.63,1992.48 -1.65,1985.35"/>
    </edge>
    <edge id=":0/2_11" function="internal">
        <lane id=":0/2_11_0" index="0" speed="15.00" length="4.82" shape="14.65,2001.65 13.41,2000.83 13.00,2000.00 13.41,1999.17 14.65,1998.35"/>
    </edge>
    <edge id=":0/2_12" function="internal">
        <lane id=":0/2_12_0" index="0" speed="15.00" length="6.42" shape="11.55,1985.35 11.74,1986.71 12.32,1987.68 13.29,1988.26 14.65,1988.45"/>
        <lane id=":0/2_12_1" index="1" speed="15.00" length="6.42" shape="11.55,1985.35 11.74,1988.15 12.32,1990.15 13.29,1991.35 14.65,1991.75"/>
    </edge>
    <edge id=":0/2_14" function="internal">
        <lane id=":0/2_14_0" index="0" speed="15.00" length="29.30" shape="11.55,1985.35 11.55,1994.05 11.55,2000.00 11.55,2005.95 11.55,2014.65"/>
        <lane id=":0/2_14_1" index="1" speed="15.00" length="29.30" shape="8.25,1985.35 8.25,1994.05 8.25,2000.00 8.25,2005.95 8.25,2014.65"/>
        <lane id=":0/2_14_2" index="2" speed="15.00" length="29.30" shape="4.95,1985.35 4.95,1994.05 4.95,2000.00 4.95,2005.95 4.95,2014.65"/>
        <lane id=":0/2_14_3" index="3" speed="15.00" length="29.30" shape="1.65,1985.35 1.65,1994.05 1.65,2000.00 1.65,2005.95 1.65,2014.65"/>
    </edge>
    <edge id=":0/2_18" function="internal">
        <lane id=":0/2_18_0" index="0" speed="15.00" length="2.41" shape="1.65,1985.35 0.83,1986.59 0.00,1987.00"/>
    </edge>
    <edge id=":0/2_22" function="internal">
        <lane id=":0/2_22_0" index="0" speed="15.00" length="2.41" shape="0.00,1987.00 -0.83,1986.59 -1.65,1985.35"/>
    </edge>
    <edge id=":0/3_0" function="internal">
        <lane id=":0/3_0_0" index="0" speed="15.00" length="29.30" shape="-11.55,3014.65 -11.55,3005.95 -11.55,3000.00 -11.55,2994.05 -11.55,2985.35"/>
        <lane id=":0/3_0_1" index="1" speed="15.00" length="29.30" shape="-8.25,3014.65 -8.25,3005.95 -8.25,3000.00 -8.25,2994.05 -8.25,2985.35"/>
        <lane id=":0/3_0_2" index="2" speed="15.00" length="29.30" shape="-4.95,3014.65 -4.95,3005.95 -4.95,3000.00 -4.95,2994.05 -4.95,2985.35"/>
    </edge>
    <edge id=":0/3_3" function="internal">
        <lane id=":0/3_3_0" index="0" speed="15.00" length="9.34" shape="-1.65,3014.65 -0.63,3006.08 0.05,3004.71"/>
        <lane id=":0/3_3_1" index="1" speed="15.00" length="9.34" shape="-1.65,3014.65 -0.63,3007.52 0.05,3006.38"/>
    </edge>
    <edge id=":0/3_5" function="internal">
        <lane id=":0/3_5_0" index="0" speed="15.00" length="2.41" shape="-1.65,3014.65 -0.83,3013.41 -0.00,3013.00"/>
    </edge>
    <edge id=":0/3_19" function="internal">
        <lane id=":0/3_19_0" index="0" speed="15.00" length="18.84" shape="0.05,3004.71 2.42,2999.95 7.52,2996.28 14.65,2995.05"/>
    </edge>
    <edge id=":0/3_20" function="internal">
        <lane id=":0/3_20_0" index="0" speed="15.00" length="17.76" shape="0.05,3006.38 2.42,3002.43 7.52,2999.37 14.65,2998.35"/>
    </edge>
    <edge id=":0/3_21" function="internal">
        <lane id=":0/3_21_0" index="0" speed="15.00" length="2.41" shape="-0.00,3013.00 0.83,3013.41 1.65,3014.65"/>
    </edge>
    <edge id=":0/3_6" function="internal">
        <lane id=":0/3_6_0" index="0" speed="15.00" length="9.47" shape="14.65,3011.55 13.29,3011.74 12.32,3012.33 11.74,3013.29 11.55,3014.65"/>
        <lane id=":0/3_6_1" index="1" speed="15.00" length="9.47" shape="14.65,3008.25 11.85,3008.65 9.85,3009.85 8.65,3011.85 8.25,3014.65"/>
        <lane id=":0/3_6_2" index="2" speed="15.00" length="9.47" shape="14.65,3008.25 10.41,3008.65 7.38,3009.85 5.56,3011.85 4.95,3014.65"/>
    </edge>
    <edge id=":0/3_9" function="internal">
        <lane id=":0/3_9_0" index="0" speed="15.00" length="28.95" shape="14.65,3004.95 6.07,3003.72 -0.05,3000.05 -3.73,2993.92 -4.95,2985.35"/>
        <lane id=":0/3_9_1" index="1" speed="15.00" length="28.95" shape="14.65,3001.65 7.52,3000.63 2.43,2997.58 -0.63,2992.48 -1.65,2985.35"/>
    </edge>
    <edge id=":0/3_11" function="internal">
        <lane id=":0/3_11_0" index="0" speed="15.00" length="4.82" shape="14.65,3001.65 13.41,3000.83 13.00,3000.00 13.41,2999.18 14.65,2998.35"/>
    </edge>
    <edge id=":0/3_12" function="internal">
        <lane id=":0/3_12_0" index="0" speed="15.00" length="6.42" shape="11.55,2985.35 11.74,2986.71 12.32,2987.68 13.29,2988.26 14.65,2988.45"/>
        <lane id=":0/3_12_1" index="1" speed="15.00" length="6.42" shape="11.55,2985.35 11.74,2988.15 12.32,2990.15 13.29,2991.35 14.65,2991.75"/>
    </edge>
    <edge id=":0/3_14" function="internal">
        <lane id=":0/3_14_0" index="0" speed="15.00" length="29.30" shape="11.55,2985.35 11.55,2994.05 11.55,3000.00 11.55,3005.95 11.55,3014.65"/>
        <lane id=":0/3_14_1" index="1" speed="15.00" length="29.30" shape="8.25,2985.35 8.25,2994.05 8.25,3000.00 8.25,3005.95 8.25,3014.65"/>
        <lane id=":0/3_14_2" index="2" speed="15.00" length="29.30" shape="4.95,2985.35 4.95,2994.05 4.95,3000.00 4.95,3005.95 4.95,3014.65"/>
        <lane id=":0/3_14_3" index="3" speed="15.00" length="29.30" shape="1.65,2985.35 1.65,2994.05 1.65,3000.00 1.65,3005.95 1.65,3014.65"/>
    </edge>
    <edge id=":0/3_18" function="internal">
        <lane id=":0/3_18_0" index="0" speed="15.00" length="2.41" shape="1.65,2985.35 0.83,2986.59 0.00,2987.00"/>
    </edge>
    <edge id=":0/3_22" function="internal">
        <lane id=":0/3_22_0" index="0" speed="15.00" length="2.41" shape="0.00,2987.00 -0.83,2986.59 -1.65,2985.35"/>
    </edge>
    <edge id=":0/4_0" function="internal">
        <lane id=":0/4_0_0" index="0" speed="15.00" length="29.30" shape="-11.55,4014.65 -11.55,4005.95 -11.55,4000.00 -11.55,3994.05 -11.55,3985.35"/>
        <lane id=":0/4_0_1" index="1" speed="15.00" length="29.30" shape="-8.25,4014.65 -8.25,4005.95 -8.25,4000.00 -8.25,3994.05 -8.25,3985.35"/>
        <lane id=":0/4_0_2" index="2" speed="15.00" length="29.30" shape="-4.95,4014.65 -4.95,4005.95 -4.95,4000.00 -4.95,3994.05 -4.95,3985.35"/>
    </edge>
    <edge id=":0/4_3" function="internal">
        <lane id=":0/4_3_0" index="0" speed="15.00" length="9.34" shape="-1.65,4014.65 -0.63,4006.08 0.05,4004.71"/>
        <lane id=":0/4_3_1" index="1" speed="15.00" length="9.34" shape="-1.65,4014.65 -0.63,4007.52 0.05,4006.38"/>
    </edge>
    <edge id=":0/4_5" function="internal">
        <lane id=":0/4_5_0" index="0" speed="15.00" length="2.41" shape="-1.65,4014.65 -0.83,4013.41 -0.00,4013.00"/>
    </edge>
    <edge id=":0/4_19" function="internal">
        <lane id=":0/4_19_0" index="0" speed="15.00" length="18.84" shape="0.05,4004.71 2.42,3999.95 7.52,3996.28 14.65,3995.05"/>
    </edge>
    <edge id=":0/4_20" function="internal">
        <lane id=":0/4_20_0" index="0" speed="15.00" length="17.76" shape="0.05,4006.38 2.42,4002.43 7.52,3999.37 14.65,3998.35"/>
    </edge>
    <edge id=":0/4_21" function="internal">
        <lane id=":0/4_21_0" index="0" speed="15.00" length="2.41" shape="-0.00,4013.00 0.83,4013.41 1.65,4014.65"/>
    </edge>
    <edge id=":0/4_6" function="internal">
        <lane id=":0/4_6_0" index="0" speed="15.00" length="9.47" shape="14.65,4011.55 13.29,4011.74 12.32,4012.33 11.74,4013.29 11.55,4014.65"/>
        <lane id=":0/4_6_1" index="1" speed="15.00" length="9.47" shape="14.65,4008.25 11.85,4008.65 9.85,4009.85 8.65,4011.85 8.25,4014.65"/>
        <lane id=":0/4_6_2" index="2" speed="15.00" length="9.47" shape="14.65,4008.25 10.41,4008.65 7.38,4009.85 5.56,4011.85 4.95,4014.65"/>
    </edge>
    <edge id=":0/4_9" function="internal">
        <lane id=":0/4_9_0" index="0" speed="15.00" length="28.95" shape="14.65,4004.95 6.07,4003.72 -0.05,4000.05 -3.73,3993.93 -4.95,3985.35"/>
        <lane id=":0/4_9_1" index="1" speed="15.00" length="28.95" shape="14.65,4001.65 7.52,4000.63 2.42,3997.58 -0.63,3992.48 -1.65,3985.35"/>
    </edge>
    <edge id=":0/4_11" function="internal">
        <lane id=":0/4_11_0" index="0" speed="15.00" length="4.82" shape="14.65,4001.65 13.41,4000.82 13.00,4000.00 13.41,3999.18 14.65,3998.35"/>
    </edge>
    <edge id=":0/4_12" function="internal">
        <lane id=":0/4_12_0" index="0" speed="15.00" length="6.42" shape="11.55,3985.35 11.74,3986.71 12.32,3987.68 13.29,3988.26 14.65,3988.45"/>
        <lane id=":0/4_12_1" index="1" speed="15.00" length="6.42" shape="11.55,3985.35 11.74,3988.15 12.32,3990.15 13.29,3991.35 14.65,3991.75"/>
    </edge>
    <edge id=":0/4_14" function="internal">
        <lane id=":0/4_14_0" index="0" speed="15.00" length="29.30" shape="11.55,3985.35 11.55,3994.05 11.55,4000.00 11.55,4005.95 11.55,4014.65"/>
        <lane id=":0/4_14_1" index="1" speed="15.00" length="29.30" shape="8.25,3985.35 8.25,3994.05 8.25,4000.00 8.25,4005.95 8.25,4014.65"/>
        <lane id=":0/4_14_2" index="2" speed="15.00" length="29.30" shape="4.95,3985.35 4.95,3994.05 4.95,4000.00 4.95,4005.95 4.95,4014.65"/>
        <lane id=":0/4_14_3" index="3" speed="15.00" length="29.30" shape="1.65,3985.35 1.65,3994.05 1.65,4000.00 1.65,4005.95 1.65,4014.65"/>
    </edge>
    <edge id=":0/4_18" function="internal">
        <lane id=":0/4_18_0" index="0" speed="15.00" length="2.41" shape="1.65,3985.35 0.83,3986.59 0.00,3987.00"/>
    </edge>
    <edge id=":0/4_22" function="internal">
        <lane id=":0/4_22_0" index="0" speed="15.00" length="2.41" shape="0.00,3987.00 -0.83,3986.59 -1.65,3985.35"/>
    </edge>
    <edge id=":0/5_0" function="internal">
        <lane id=":0/5_0_0" index="0" speed="15.00" length="31.85" shape="13.15,5011.55 2.34,5010.01 -5.37,5005.38 -10.01,4997.66 -11.55,4986.85"/>
        <lane id=":0/5_0_1" index="1" speed="15.00" length="31.85" shape="13.15,5008.25 3.79,5006.91 -2.90,5002.90 -6.91,4996.21 -8.25,4986.85"/>
        <lane id=":0/5_0_2" index="2" speed="15.00" length="31.85" shape="13.15,5004.95 5.23,5003.82 -0.43,5000.42 -3.82,4994.77 -4.95,4986.85"/>
        <lane id=":0/5_0_3" index="3" speed="15.00" length="31.85" shape="13.15,5001.65 6.68,5000.73 2.05,4997.95 -0.72,4993.32 -1.65,4986.85"/>
    </edge>
    <edge id=":0/5_4" function="internal">
        <lane id=":0/5_4_0" index="0" speed="15.00" length="2.69" shape="13.15,5001.65 11.91,5000.83 11.50,5000.00 11.63,4999.75"/>
    </edge>
    <edge id=":0/5_10" function="internal">
        <lane id=":0/5_10_0" index="0" speed="15.00" length="2.13" shape="11.63,4999.75 11.91,4999.18 13.15,4998.35"/>
    </edge>
    <edge id=":0/5_5" function="internal">
        <lane id=":0/5_5_0" index="0" speed="15.00" length="10.56" shape="11.55,4986.85 11.65,4987.55 11.95,4988.05 12.45,4988.35 13.15,4988.45"/>
        <lane id=":0/5_5_1" index="1" speed="15.00" length="10.56" shape="8.25,4986.85 8.56,4988.99 9.47,4990.52 11.01,4991.44 13.15,4991.75"/>
        <lane id=":0/5_5_2" index="2" speed="15.00" length="10.56" shape="4.95,4986.85 5.46,4990.44 7.00,4993.00 9.56,4994.54 13.15,4995.05"/>
        <lane id=":0/5_5_3" index="3" speed="15.00" length="10.56" shape="1.65,4986.85 2.37,4991.88 4.52,4995.48 8.12,4997.63 13.15,4998.35"/>
    </edge>
    <edge id=":0/5_9" function="internal">
        <lane id=":0/5_9_0" index="0" speed="15.00" length="2.20" shape="1.65,4986.85 0.83,4988.09 0.19,4988.41"/>
    </edge>
    <edge id=":0/5_11" function="internal">
        <lane id=":0/5_11_0" index="0" speed="15.00" length="2.62" shape="0.19,4988.41 0.00,4988.50 -0.83,4988.09 -1.65,4986.85"/>
    </edge>
    <edge id=":1/0_0" function="internal">
        <lane id=":1/0_0_0" index="0" speed="15.00" length="9.47" shape="788.45,14.65 788.26,13.29 787.68,12.32 786.71,11.74 785.35,11.55"/>
        <lane id=":1/0_0_1" index="1" speed="15.00" length="9.47" shape="791.75,14.65 791.35,11.85 790.15,9.85 788.15,8.65 785.35,8.25"/>
        <lane id=":1/0_0_2" index="2" speed="15.00" length="9.47" shape="791.75,14.65 791.35,10.41 790.15,7.38 788.15,5.56 785.35,4.95"/>
    </edge>
    <edge id=":1/0_3" function="internal">
        <lane id=":1/0_3_0" index="0" speed="15.00" length="28.95" shape="795.05,14.65 796.27,6.07 799.95,-0.05 806.07,-3.73 814.65,-4.95"/>
        <lane id=":1/0_3_1" index="1" speed="15.00" length="28.95" shape="798.35,14.65 799.37,7.52 802.43,2.43 807.52,-0.63 814.65,-1.65"/>
    </edge>
    <edge id=":1/0_5" function="internal">
        <lane id=":1/0_5_0" index="0" speed="15.00" length="4.82" shape="798.35,14.65 799.18,13.41 800.00,13.00 800.83,13.41 801.65,14.65"/>
    </edge>
    <edge id=":1/0_6" function="internal">
        <lane id=":1/0_6_0" index="0" speed="15.00" length="6.42" shape="814.65,11.55 813.29,11.74 812.32,12.33 811.74,13.29 811.55,14.65"/>
        <lane id=":1/0_6_1" index="1" speed="15.00" length="6.42" shape="814.65,11.55 811.85,11.74 809.85,12.33 808.65,13.29 808.25,14.65"/>
    </edge>
    <edge id=":1/0_8" function="internal">
        <lane id=":1/0_8_0" index="0" speed="15.00" length="29.30" shape="814.65,11.55 805.95,11.55 800.00,11.55 794.05,11.55 785.35,11.55"/>
        <lane id=":1/0_8_1" index="1" speed="15.00" length="29.30" shape="814.65,8.25 805.95,8.25 800.00,8.25 794.05,8.25 785.35,8.25"/>
        <lane id=":1/0_8_2" index="2" speed="15.00" length="29.30" shape="814.65,4.95 805.95,4.95 800.00,4.95 794.05,4.95 785.35,4.95"/>
        <lane id=":1/0_8_3" index="3" speed="15.00" length="29.30" shape="814.65,1.65 805.95,1.65 800.00,1.65 794.05,1.65 785.35,1.65"/>
    </edge>
    <edge id=":1/0_12" function="internal">
        <lane id=":1/0_12_0" index="0" speed="15.00" length="2.41" shape="814.65,1.65 813.41,0.83 813.00,0.00"/>
    </edge>
    <edge id=":1/0_19" function="internal">
        <lane id=":1/0_19_0" index="0" speed="15.00" length="2.41" shape="813.00,0.00 813.41,-0.82 814.65,-1.65"/>
    </edge>
    <edge id=":1/0_13" function="internal">
        <lane id=":1/0_13_0" index="0" speed="15.00" length="29.30" shape="785.35,-11.55 794.05,-11.55 800.00,-11.55 805.95,-11.55 814.65,-11.55"/>
        <lane id=":1/0_13_1" index="1" speed="15.00" length="29.30" shape="785.35,-8.25 794.05,-8.25 800.00,-8.25 805.95,-8.25 814.65,-8.25"/>
        <lane id=":1/0_13_2" index="2" speed="15.00" length="29.30" shape="785.35,-4.95 794.05,-4.95 800.00,-4.95 805.95,-4.95 814.65,-4.95"/>
    </edge>
    <edge id=":1/0_16" function="internal">
        <lane id=":1/0_16_0" index="0" speed="15.00" length="9.34" shape="785.35,-1.65 793.93,-0.63 795.29,0.05"/>
        <lane id=":1/0_16_1" index="1" speed="15.00" length="9.34" shape="785.35,-1.65 792.48,-0.63 793.62,0.05"/>
    </edge>
    <edge id=":1/0_18" function="internal">
        <lane id=":1/0_18_0" index="0" speed="15.00" length="2.41" shape="785.35,-1.65 786.59,-0.83 787.00,-0.00"/>
    </edge>
    <edge id=":1/0_20" function="internal">
        <lane id=":1/0_20_0" index="0" speed="15.00" length="18.84" shape="795.29,0.05 800.05,2.43 803.73,7.52 804.95,14.65"/>
    </edge>
    <edge id=":1/0_21" function="internal">
        <lane id=":1/0_21_0" index="0" speed="15.00" length="17.76" shape="793.62,0.05 797.58,2.43 800.63,7.52 801.65,14.65"/>
    </edge>
    <edge id=":1/0_22" function="internal">
        <lane id=":1/0_22_0" index="0" speed="15.00" length="2.41" shape="787.00,-0.00 786.59,0.82 785.35,1.65"/>
    </edge>
    <edge id=":1/1_0" function="internal">
        <lane id=":1/1_0_0" index="0" speed="15.00" length="5.00" shape="788.45,1014.65 788.26,1013.29 787.68,1012.33 786.71,1011.74 785.35,1011.55"/>
    </edge>
    <edge id=":1/1_1" function="internal">
        <lane id=":1/1_1_0" index="0" speed="15.00" length="29.30" shape="788.45,1014.65 788.45,1005.95 788.45,1000.00 788.45,994.05 788.45,985.35"/>
        <lane id=":1/1_1_1" index="1" speed="15.00" length="29.30" shape="791.75,1014.65 791.75,1005.95 791.75,1000.00 791.75,994.05 791.75,985.35"/>
        <lane id=":1/1_1_2" index="2" speed="15.00" length="29.30" shape="795.05,1014.65 795.05,1005.95 795.05,1000.00 795.05,994.05 795.05,985.35"/>
        <lane id=":1/1_1_3" index="3" speed="15.00" length="29.30" shape="798.35,1014.65 798.35,1005.95 798.35,1000.00 798.35,994.05 798.35,985.35"/>
    </edge>
    <edge id=":1/1_5" function="internal">
        <lane id=":1/1_5_0" index="0" speed="15.00" length="8.53" shape="798.35,1014.65 799.37,1007.52 800.05,1006.38"/>
    </edge>
    <edge id=":1/1_6" function="internal">
        <lane id=":1/1_6_0" index="0" speed="15.00" length="2.41" shape="798.35,1014.65 799.18,1013.41 800.00,1013.00"/>
    </edge>
    <edge id=":1/1_28" function="internal">
        <lane id=":1/1_28_0" index="0" speed="15.00" length="17.76" shape="800.05,1006.38 802.43,1002.43 807.52,999.37 814.65,998.35"/>
    </edge>
    <edge id=":1/1_29" function="internal">
        <lane id=":1/1_29_0" index="0" speed="15.00" length="2.41" shape="800.00,1013.00 800.83,1013.41 801.65,1014.65"/>
    </edge>
    <edge id=":1/1_7" function="internal">
        <lane id=":1/1_7_0" index="0" speed="15.00" length="7.66" shape="814.65,1011.55 813.29,1011.74 812.33,1012.32 811.74,1013.29 811.55,1014.65"/>
        <lane id=":1/1_7_1" index="1" speed="15.00" length="7.66" shape="814.65,1008.25 811.85,1008.65 809.85,1009.85 808.65,1011.85 808.25,1014.65"/>
    </edge>
    <edge id=":1/1_9" function="internal">
        <lane id=":1/1_9_0" index="0" speed="15.00" length="29.42" shape="814.65,1004.95 805.93,1005.47 800.00,1006.60 794.07,1007.73 785.35,1008.25"/>
        <lane id=":1/1_9_1" index="1" speed="15.00" length="29.42" shape="814.65,1004.95 805.95,1004.95 800.00,1004.95 794.05,1004.95 785.35,1004.95"/>
    </edge>
    <edge id=":1/1_11" function="internal">
        <lane id=":1/1_11_0" index="0" speed="15.00" length="28.95" shape="814.65,1004.95 806.07,1003.73 799.95,1000.05 796.27,993.92 795.05,985.35"/>
        <lane id=":1/1_11_1" index="1" speed="15.00" length="28.95" shape="814.65,1001.65 807.52,1000.63 802.42,997.57 799.37,992.48 798.35,985.35"/>
    </edge>
    <edge id=":1/1_13" function="internal">
        <lane id=":1/1_13_0" index="0" speed="15.00" length="4.82" shape="814.65,1001.65 813.41,1000.83 813.00,1000.00 813.41,999.17 814.65,998.35"/>
    </edge>
    <edge id=":1/1_14" function="internal">
        <lane id=":1/1_14_0" index="0" speed="15.00" length="5.00" shape="811.55,985.35 811.74,986.71 812.32,987.68 813.29,988.26 814.65,988.45"/>
    </edge>
    <edge id=":1/1_15" function="internal">
        <lane id=":1/1_15_0" index="0" speed="15.00" length="29.30" shape="811.55,985.35 811.55,994.05 811.55,1000.00 811.55,1005.95 811.55,1014.65"/>
        <lane id=":1/1_15_1" index="1" speed="15.00" length="29.30" shape="808.25,985.35 808.25,994.05 808.25,1000.00 808.25,1005.95 808.25,1014.65"/>
        <lane id=":1/1_15_2" index="2" speed="15.00" length="29.30" shape="804.95,985.35 804.95,994.05 804.95,1000.00 804.95,1005.95 804.95,1014.65"/>
        <lane id=":1/1_15_3" index="3" speed="15.00" length="29.30" shape="801.65,985.35 801.65,994.05 801.65,1000.00 801.65,1005.95 801.65,1014.65"/>
    </edge>
    <edge id=":1/1_19" function="internal">
        <lane id=":1/1_19_0" index="0" speed="15.00" length="8.53" shape="801.65,985.35 800.63,992.48 799.95,993.62"/>
    </edge>
    <edge id=":1/1_20" function="internal">
        <lane id=":1/1_20_0" index="0" speed="15.00" length="2.41" shape="801.65,985.35 800.82,986.59 800.00,987.00"/>
    </edge>
    <edge id=":1/1_30" function="internal">
        <lane id=":1/1_30_0" index="0" speed="15.00" length="17.76" shape="799.95,993.62 797.57,997.58 792.48,1000.63 785.35,1001.65"/>
    </edge>
    <edge id=":1/1_31" function="internal">
        <lane id=":1/1_31_0" index="0" speed="15.00" length="2.41" shape="800.00,987.00 799.17,986.59 798.35,985.35"/>
    </edge>
    <edge id=":1/1_21" function="internal">
        <lane id=":1/1_21_0" index="0" speed="15.00" length="7.66" shape="785.35,988.45 786.71,988.26 787.67,987.68 788.26,986.71 788.45,985.35"/>
        <lane id=":1/1_21_1" index="1" speed="15.00" length="7.66" shape="785.35,991.75 788.15,991.35 790.15,990.15 791.35,988.15 791.75,985.35"/>
    </edge>
    <edge id=":1/1_23" function="internal">
        <lane id=":1/1_23_0" index="0" speed="15.00" length="29.42" shape="785.35,995.05 794.07,994.53 800.00,993.40 805.93,992.27 814.65,991.75"/>
        <lane id=":1/1_23_1" index="1" speed="15.00" length="29.42" shape="785.35,995.05 794.05,995.05 800.00,995.05 805.95,995.05 814.65,995.05"/>
    </edge>
    <edge id=":1/1_25" function="internal">
        <lane id=":1/1_25_0" index="0" speed="15.00" length="28.95" shape="785.35,995.05 793.93,996.27 800.05,999.95 803.73,1006.08 804.95,1014.65"/>
        <lane id=":1/1_25_1" index="1" speed="15.00" length="28.95" shape="785.35,998.35 792.48,999.37 797.57,1002.43 800.63,1007.52 801.65,1014.65"/>
    </edge>
    <edge id=":1/1_27" function="internal">
        <lane id=":1/1_27_0" index="0" speed="15.00" length="4.82" shape="785.35,998.35 786.59,999.17 787.00,1000.00 786.59,1000.83 785.35,1001.65"/>
    </edge>
    <edge id=":1/2_0" function="internal">