<?xml version="1.0"?>
<!-- generated on 2018-03-23 16:12:58.971000 by $Id: randomTrips.py 18756 2015-08-31 19:16:33Z behrisch $
  options: -n input_net.net.xml -e 120 -p 0.15 <doubleminus>trip-attributes=departLane="best"
-->
<trips>
    <trip id="0" depart="0.00" from="0/2to1/2" to="0/5to1/5" departLane="best"/>
    <trip id="1" depart="0.15" from="2/1to2/2" to="4/1to4/2" departLane="best"/>
    <trip id="2" depart="0.30" from="5/4to4/4" to="1/5to1/4" departLane="best"/>
    <trip id="3" depart="0.45" from="4/2to4/1" to="4/4to5/4" departLane="best"/>
    <trip id="4" depart="0.60" from="1/4to1/3" to="2/3to1/3" departLane="best"/>
    <trip id="5" depart="0.75" from="2/2to2/1" to="1/4to2/4" departLane="best"/>
    <trip id="6" depart="0.90" from="4/2to4/1" to="3/4to3/3" departLane="best"/>
    <trip id="7" depart="1.05" from="0/1to0/2" to="1/1to2/1" departLane="best"/>
    <trip id="8" depart="1.20" from="2/4to3/4" to="4/3to3/3" departLane="best"/>
    <trip id="9" depart="1.35" from="3/1to3/0" to="3/2to3/3" departLane="best"/>
    <trip id="10" depart="1.50" from="2/0to2/1" to="4/2to4/1" departLane="best"/>
    <trip id="11" depart="1.65" from="2/0to1/0" to="5/2to4/2" departLane="best"/>
    <trip id="12" depart="1.80" from="5/5to4/5" to="4/4to4/3" departLane="best"/>
    <trip id="13" depart="1.95" from="1/3to1/4" to="5/0to4/0" departLane="best"/>
    <trip id="14" depart="2.10" from="4/2to5/2" to="4/4to4/5" departLane="best"/>
    <trip id="15" depart="2.25" from="5/3to5/4" to="1/3to1/4" departLane="best"/>
    <trip id="16" depart="2.40" from="3/3to2/3" to="5/0to4/0" departLane="best"/>
    <trip id="17" depart="2.55" from="3/4to2/4" to="0/0to1/0" departLane="best"/>
    <trip id="18" depart="2.70" from="4/1to3/1" to="4/2to5/2" departLane="best"/>
    <trip id="19" depart="2.85" from="5/1to5/0" to="1/1to1/2" departLane="best"/>
    <trip id="20" depart="3.00" from="3/1to4/1" to="4/2to4/1" departLane="best"/>
    <trip id="21" depart="3.15" from="3/2to4/2" to="0/0to0/1" departLane="best"/>
    <trip id="22" depart="3.30" from="3/5to3/4" to="4/3to4/4" departLane="best"/>
    <trip id="23" depart="3.45" from="1/2to1/1" to="0/4to0/5" departLane="best"/>
    <trip id="24" depart="3.60" from="2/5to3/5" to="4/2to4/1" departLane="best"/>
    <trip id="25" depart="3.75" from="3/5to2/5" to="5/5to4/5" departLane="best"/>
    <trip id="26" depart="3.90" from="4/0to3/0" to="1/1to1/2" departLane="best"/>
    <trip id="27" depart="4.05" from="4/0to5/0" to="5/1to5/2" departLane="best"/>
    <trip id="28" depart="4.20" from="0/2to1/2" to="1/4to0/4" departLane="best"/>
    <trip id="29" depart="4.35" from="5/4to5/3" to="5/5to4/5" departLane="best"/>
    <trip id="30" depart="4.50" from="2/4to2/3" to="5/1to5/2" departLane="best"/>
    <trip id="31" depart="4.65" from="1/2to1/1" to="1/3to1/4" departLane="best"/>
    <trip id="32" depart="4.80" from="3/4to2/4" to="0/4to1/4" departLane="best"/>
    <trip id="33" depart="4.95" from="1/4to1/3" to="0/2to0/1" departLane="best"/>
    <trip id="34" depart="5.10" from="2/4to2/5" to="4/5to4/4" departLane="best"/>
    <trip id="35" depart="5.25" from="5/2to5/1" to="3/3to4/3" departLane="best"/>
    <trip id="36" depart="5.40" from="0/4to0/3" to="4/2to4/1" departLane="best"/>
    <trip id="37" depart="5.55" from="2/4to3/4" to="2/4to2/5" departLane="best"/>
    <trip id="38" depart="5.70" from="0/3to1/3" to="3/2to3/3" departLane="best"/>
    <trip id="39" depart="5.85" from="5/2to5/3" to="4/2to5/2" departLane="best"/>
    <trip id="40" depart="6.00" from="4/2to4/1" to="5/5to5/4" departLane="best"/>
    <trip id="41" depart="6.15" from="2/4to1/4" to="3/4to3/3" departLane="best"/>
    <trip id="42" depart="6.30" from="2/2to2/1" to="4/3to3/3" departLane="best"/>
    <trip id="43" depart="6.45" from="3/3to3/2" to="1/3to0/3" departLane="best"/>
    <trip id="44" depart="6.60" from="0/2to0/1" to="4/2to4/1" departLane="best"/>
    <trip id="45" depart="6.75" from="5/2to5/3" to="5/5to4/5" departLane="best"/>
    <trip id="46" depart="6.90" from="4/4to4/5" to="2/5to1/5" departLane="best"/>
    <trip id="47" depart="7.05" from="2/1to1/1" to="5/4to5/5" departLane="best"/>
    <trip id="48" depart="7.20" from="3/0to3/1" to="2/4to2/3" departLane="best"/>
    <trip id="49" depart="7.35" from="1/0to0/0" to="4/4to4/5" departLane="best"/>
    <trip id="50" depart="7.50" from="4/2to4/3" to="1/4to2/4" departLane="best"/>
    <trip id="51" depart="7.65" from="1/0to2/0" to="3/0to4/0" departLane="best"/>
    <trip id="52" depart="7.80" from="1/5to0/5" to="4/2to5/2" departLane="best"/>
    <trip id="53" depart="7.95" from="4/1to3/1" to="4/0to3/0" departLane="best"/>
    <trip id="54" depart="8.10" from="3/4to3/5" to="1/1to2/1" departLane="best"/>
    <trip id="55" depart="8.25" from="0/2to0/1" to="0/5to1/5" departLane="best"/>
    <trip id="56" depart="8.40" from="4/1to5/1" to="3/3to3/4" departLane="best"/>
    <trip id="57" depart="8.55" from="3/5to2/5" to="0/1to1/1" departLane="best"/>
    <trip id="58" depart="8.70" from="4/0to5/0" to="5/0to5/1" departLane="best"/>
    <trip id="59" depart="8.85" from="1/3to1/4" to="2/4to1/4" departLane="best"/>
    <trip id="60" depart="9.00" from="1/0to2/0" to="4/4to4/5" departLane="best"/>
    <trip id="61" depart="9.15" from="0/2to0/1" to="3/4to3/5" departLane="best"/>
    <trip id="62" depart="9.30" from="1/2to1/3" to="5/4to5/5" departLane="best"/>
    <trip id="63" depart="9.45" from="2/0to2/1" to="5/2to4/2" departLane="best"/>
    <trip id="64" depart="9.60" from="2/3to2/2" to="2/0to2/1" departLane="best"/>
    <trip id="65" depart="9.75" from="0/1to0/0" to="1/5to1/4" departLane="best"/>
    <trip id="66" depart="9.90" from="3/4to3/3" to="3/3to3/2" departLane="best"/>
    <trip id="67" depart="10.05" from="0/3to0/4" to="2/2to1/2" departLane="best"/>
    <trip id="68" depart="10.20" from="4/3to4/4" to="4/3to3/3" departLane="best"/>
    <trip id="69" depart="10.35" from="5/3to4/3" to="1/1to0/1" departLane="best"/>
    <trip id="70" depart="10.50" from="5/3to5/2" to="3/1to2/1" departLane="best"/>
    <trip id="71" depart="10.65" from="2/1to1/1" to="2/1to2/0" departLane="best"/>
    <trip id="72" depart="10.80" from="5/0to4/0" to="3/4to2/4" departLane="best"/>
    <trip id="73" depart="10.95" from="4/4to4/5" to="4/0to4/1" departLane="best"/>
    <trip id="74" depart="11.10" from="5/1to5/2" to="5/2to4/2" departLane="best"/>
    <trip id="75" depart="11.25" from="1/0to0/0" to="1/5to1/4" departLane="best"/>
    <trip id="76" depart="11.40" from="1/5to1/4" to="1/5to0/5" departLane="best"/>
    <trip id="77" depart="11.55" from="0/1to0/2" to="1/0to2/0" departLane="best"/>
    <trip id="78" depart="11.70" from="0/0to0/1" to="0/3to0/2" departLane="best"/>
    <trip id="79" depart="11.85" from="5/2to5/3" to="1/0to1/1" departLane="best"/>
    <trip id="80" depart="12.00" from="0/3to0/4" to="0/5to0/4" departLane="best"/>
    <trip id="81" depart="12.15" from="3/0to2/0" to="2/3to2/4" departLane="best"/>
    <trip id="82" depart="12.30" from="1/3to2/3" to="3/3to4/3" departLane="best"/>
    <trip id="83" depart="12.45" from="2/4to3/4" to="5/3to4/3" departLane="best"/>
    <trip id="84" depart="12.60" from="1/5to1/4" to="5/4to4/4" departLane="best"/>
    <trip id="85" depart="12.75" from="3/0to4/0" to="5/4to5/5" departLane="best"/>
    <trip id="86" depart="12.90" from="0/3to1/3" to="2/2to3/2" departLane="best"/>
    <trip id="87" depart="13.05" from="4/1to3/1" to="4/3to5/3" departLane="best"/>
    <trip id="88" depart="13.20" from="0/1to1/1" to="1/2to0/2" departLane="best"/>
    <trip id="89" depart="13.35" from="1/1to2/1" to="4/2to4/3" departLane="best"/>
    <trip id="90" depart="13.50" from="0/4to0/3" to="4/0to3/0" departLane="best"/>
    <trip id="91" depart="13.65" from="0/5to1/5" to="2/4to1/4" departLane="best"/>
    <trip id="92" depart="13.80" from="1/1to1/2" to="0/3to0/2" departLane="best"/>
    <trip id="93" depart="13.95" from="2/0to2/1" to="3/4to4/4" departLane="best"/>
    <trip id="94" depart="14.10" from="1/5to2/5" to="2/3to2/2" departLane="best"/>
    <trip id="95" depart="14.25" from="4/0to4/1" to="5/5to5/4" departLane="best"/>
    <trip id="96" depart="14.40" from="3/1to2/1" to="0/5to1/5" departLane="best"/>
    <trip id="97" depart="14.55" from="1/4to0/4" to="5/2to5/3" departLane="best"/>
    <trip id="98" depart="14.70" from="4/1to4/2" to="5/0to5/1" departLane="best"/>
    <trip id="99" depart="14.85" from="5/1to5/2" to="2/5to1/5" departLane="best"/>
    <trip id="100" depart="15.00" from="4/0to3/0" to="3/3to3/4" departLane="best"/>
    <trip id="101" depart="15.15" from="4/0to5/0" to="1/3to1/2" departLane="best"/>
    <trip id="102" depart="15.30" from="3/5to4/5" to="2/1to2/2" departLane="best"/>
    <trip id="103" depart="15.45" from="5/4to5/5" to="0/1to0/0" departLane="best"/>
    <trip id="104" depart="15.60" from="1/0to2/0" to="3/2to3/3" departLane="best"/>
    <trip id="105" depart="15.75" from="1/0to0/0" to="4/5to3/5" departLane="best"/>
    <trip id="106" depart="15.90" from="3/3to3/4" to="5/2to5/1" departLane="best"/>
    <trip id="107" depart="16.05" from="4/2to5/2" to="3/2to4/2" departLane="best"/>
    <trip id="108" depart="16.20" from="5/5to4/5" to="2/5to3/5" departLane="best"/>
    <trip id="109" depart="16.35" from="1/1to1/0" to="4/3to4/2" departLane="best"/>
    <trip id="110" depart="16.50" from="1/3to1/2" to="2/1to2/0" departLane="best"/>
    <trip id="111" depart="16.65" from="2/4to3/4" to="5/3to4/3" departLane="best"/>
    <trip id="112" depart="16.80" from="3/1to3/0" to="5/2to4/2" departLane="best"/>
    <trip id="113" depart="16.95" from="0/5to0/4" to="1/3to1/2" departLane="best"/>
    <trip id="114" depart="17.10" from="3/4to3/5" to="0/3to0/4" departLane="best"/>
    <trip id="115" depart="17.25" from="3/4to2/4" to="2/2to2/3" departLane="best"/>
    <trip id="116" depart="17.40" from="4/4to3/4" to="3/2to3/1" departLane="best"/>
    <trip id="117" depart="17.55" from="1/1to0/1" to="4/0to3/0" departLane="best"/>
    <trip id="118" depart="17.70" from="5/1to4/1" to="3/4to3/3" departLane="best"/>
    <trip id="119" depart="17.85" from="2/3to1/3" to="0/2to1/2" departLane="best"/>
    <trip id="120" depart="18.00" from="5/2to5/3" to="1/0to0/0" departLane="best"/>
    <trip id="121" depart="18.15" from="1/4to2/4" to="4/1to4/2" departLane="best"/>
    <trip id="122" depart="18.30" from="2/2to2/3" to="2/0to1/0" departLane="best"/>
    <trip id="123" depart="18.45" from="2/2to2/1" to="4/0to4/1" departLane="best"/>
    <trip id="124" depart="18.60" from="3/0to2/0" to="1/5to1/4" departLane="best"/>
    <trip id="125" depart="18.75" from="2/1to2/2" to="2/3to2/2" departLane="best"/>
    <trip id="126" depart="18.90" from="5/0to4/0" to="5/1to5/2" departLane="best"/>
    <trip id="127" depart="19.05" from="4/5to4/4" to="2/3to2/4" departLane="best"/>
    <trip id="128" depart="19.20" from="0/1to0/0" to="1/4to1/5" departLane="best"/>
    <trip id="129" depart="19.35" from="3/4to4/4" to="5/1to5/0" departLane="best"/>
    <trip id="130" depart="19.50" from="5/1to5/0" to="4/3to3/3" departLane="best"/>
    <trip id="131" depart="19.65" from="2/2to2/3" to="4/1to5/1" departLane="best"/>
    <trip id="132" depart="19.80" from="2/5to2/4" to="4/1to4/0" departLane="best"/>
    <trip id="133" depart="19.95" from="5/5to5/4" to="0/4to0/5" departLane="best"/>
    <trip id="134" depart="20.10" from="4/2to4/1" to="5/2to5/3" departLane="best"/>
    <trip id="135" depart="20.25" from="0/3to1/3" to="5/3to4/3" departLane="best"/>
    <trip id="136" depart="20.40" from="5/2to4/2" to="3/5to4/5" departLane="best"/>
    <trip id="137" depart="20.55" from="1/5to2/5" to="0/0to1/0" departLane="best"/>
    <trip id="138" depart="20.70" from="5/0to4/0" to="4/1to4/2" departLane="best"/>
    <trip id="139" depart="20.85" from="3/4to2/4" to="3/1to2/1" departLane="best"/>
    <trip id="140" depart="21.00" from="1/1to1/0" to="2/4to1/4" departLane="best"/>
    <trip id="141" depart="21.15" from="4/0to5/0" to="3/3to3/4" departLane="best"/>
    <trip id="142" depart="21.30" from="0/4to0/3" to="3/4to3/5" departLane="best"/>
    <trip id="143" depart="21.45" from="3/4to2/4" to="5/0to4/0" departLane="best"/>
    <trip id="144" depart="21.60" from="3/3to2/3" to="2/3to2/4" departLane="best"/>
    <trip id="145" depart="21.75" from="1/3to2/3" to="1/3to1/2" departLane="best"/>
    <trip id="146" depart="21.90" from="1/5to2/5" to="0/4to1/4" departLane="best"/>
    <trip id="147" depart="22.05" from="3/1to4/1" to="3/4to3/3" departLane="best"/>
    <trip id="148" depart="22.20" from="0/2to0/3" to="5/3to4/3" departLane="best"/>
    <trip id="149" depart="22.35" from="2/4to2/3" to="5/1to5/0" departLane="best"/>
    <trip id="150" depart="22.50" from="3/0to3/1" to="3/4to3/3" departLane="best"/>
    <trip id="151" depart="22.65" from="2/1to2/2" to="1/3to1/4" departLane="best"/>
    <trip id="152" depart="22.80" from="5/5to5/4" to="5/2to5/1" departLane="best"/>
    <trip id="153" depart="22.95" from="5/4to5/3" to="4/2to4/3" departLane="best"/>
    <trip id="154" depart="23.10" from="4/1to5/1" to="3/0to3/1" departLane="best"/>
    <trip id="155" depart="23.25" from="1/3to1/4" to="2/0to3/0" departLane="best"/>
    <trip id="156" depart="23.40" from="3/0to4/0" to="1/4to1/5" departLane="best"/>
    <trip id="157" depart="23.55" from="4/0to3/0" to="5/5to4/5" departLane="best"/>
    <trip id="158" depart="23.70" from="4/2to4/3" to="0/1to1/1" departLane="best"/>
    <trip id="159" depart="23.85" from="3/2to3/3" to="2/4to1/4" departLane="best"/>
    <trip id="160" depart="24.00" from="0/4to1/4" to="3/0to2/0" departLane="best"/>
    <trip id="161" depart="24.15" from="0/5to0/4" to="5/3to4/3" departLane="best"/>
    <trip id="162" depart="24.30" from="2/3to1/3" to="1/3to1/4" departLane="best"/>
    <trip id="163" depart="24.45" from="5/5to4/5" to="4/2to5/2" departLane="best"/>
    <trip id="164" depart="24.60" from="1/3to1/4" to="1/1to1/0" departLane="best"/>
    <trip id="165" depart="24.75" from="4/5to3/5" to="3/0to2/0" departLane="best"/>
    <trip id="166" depart="24.90" from="1/1to2/1" to="1/3to0/3" departLane="best"/>
    <trip id="167" depart="25.05" from="3/3to3/2" to="5/0to4/0" departLane="best"/>
    <trip id="168" depart="25.20" from="5/2to4/2" to="0/2to1/2" departLane="best"/>
    <trip id="169" depart="25.35" from="4/3to5/3" to="4/5to5/5" departLane="best"/>
    <trip id="170" depart="25.50" from="1/2to2/2" to="0/5to1/5" departLane="best"/>
    <trip id="171" depart="25.65" from="3/2to3/1" to="0/5to1/5" departLane="best"/>
    <trip id="172" depart="25.80" from="4/5to5/5" to="2/0to3/0" departLane="best"/>
    <trip id="173" depart="25.95" from="5/2to4/2" to="3/4to3/3" departLane="best"/>
    <trip id="174" depart="26.10" from="0/1to0/0" to="4/2to5/2" departLane="best"/>
    <trip id="175" depart="26.25" from="0/1to0/2" to="5/2to4/2" departLane="best"/>
    <trip id="176" depart="26.40" from="4/4to4/3" to="1/4to2/4" departLane="best"/>
    <trip id="177" depart="26.55" from="5/4to4/4" to="4/0to5/0" departLane="best"/>
    <trip id="178" depart="26.70" from="2/3to2/2" to="4/3to3/3" departLane="best"/>
    <trip id="179" depart="26.85" from="5/4to5/3" to="0/0to1/0" departLane="best"/>
    <trip id="180" depart="27.00" from="5/1to5/2" to="2/3to2/2" departLane="best"/>
    <trip id="181" depart="27.15" from="0/0to1/0" to="1/0to0/0" departLane="best"/>
    <trip id="182" depart="27.30" from="0/5to1/5" to="3/4to2/4" departLane="best"/>
    <trip id="183" depart="27.45" from="0/5to1/5" to="4/1to3/1" departLane="best"/>
    <trip id="184" depart="27.60" from="1/4to0/4" to="1/2to2/2" departLane="best"/>
    <trip id="185" depart="27.75" from="2/1to1/1" to="0/3to0/4" departLane="best"/>
    <trip id="186" depart="27.90" from="2/1to1/1" to="1/1to2/1" departLane="best"/>
    <trip id="187" depart="28.05" from="5/4to4/4" to="2/1to2/0" departLane="best"/>
    <trip id="188" depart="28.20" from="5/3to5/4" to="3/5to3/4" departLane="best"/>
    <trip id="189" depart="28.35" from="0/2to1/2" to="0/1to1/1" departLane="best"/>
    <trip id="190" depart="28.50" from="2/0to1/0" to="2/2to3/2" departLane="best"/>
    <trip id="191" depart="28.65" from="1/1to0/1" to="0/1to1/1" departLane="best"/>
    <trip id="192" depart="28.80" from="3/3to2/3" to="2/4to1/4" departLane="best"/>
    <trip id="193" depart="28.95" from="5/0to5/1" to="4/4to5/4" departLane="best"/>
    <trip id="194" depart="29.10" from="5/3to4/3" to="3/3to3/4" departLane="best"/>
    <trip id="195" depart="29.25" from="1/3to1/4" to="3/3to3/2" departLane="best"/>
    <trip id="196" depart="29.40" from="1/3to1/4" to="3/3to2/3" departLane="best"/>
    <trip id="197" depart="29.55" from="3/4to3/5" to="5/2to5/3" departLane="best"/>
    <trip id="198" depart="29.70" from="2/5to2/4" to="5/1to4/1" departLane="best"/>
    <trip id="199" depart="29.85" from="1/4to1/3" to="2/0to3/0" departLane="best"/>
    <trip id="200" depart="30.00" from="3/4to3/5" to="0/3to0/2" departLane="best"/>
    <trip id="201" depart="30.15" from="1/5to2/5" to="0/5to1/5" departLane="best"/>
    <trip id="202" depart="30.30" from="4/2to5/2" to="3/3to3/2" departLane="best"/>
    <trip id="203" depart="30.45" from="0/2to0/1" to="0/3to1/3" departLane="best"/>
    <trip id="204" depart="30.60" from="2/0to3/0" to="0/1to0/0" departLane="best"/>
    <trip id="205" depart="30.75" from="4/5to5/5" to="3/2to2/2" departLane="best"/>
    <trip id="206" depart="30.90" from="0/4to1/4" to="4/3to4/4" departLane="best"/>
    <trip id="207" depart="31.05" from="4/4to3/4" to="3/2to2/2" departLane="best"/>
    <trip id="208" depart="31.20" from="1/0to2/0" to="1/0to2/0" departLane="best"/>
    <trip id="209" depart="31.35" from="4/4to5/4" to="1/3to1/4" departLane="best"/>
    <trip id="210" depart="31.50" from="5/0to4/0" to="2/1to2/2" departLane="best"/>
    <trip id="211" depart="31.65" from="2/0to1/0" to="4/4to3/4" departLane="best"/>
    <trip id="212" depart="31.80" from="0/0to0/1" to="4/0to4/1" departLane="best"/>
    <trip id="213" depart="31.95" from="0/3to0/2" to="1/0to2/0" departLane="best"/>
    <trip id="214" depart="32.10" from="5/5to4/5" to="5/1to4/1" departLane="best"/>
    <trip id="215" depart="32.25" from="0/5to0/4" to="0/2to0/3" departLane="best"/>
    <trip id="216" depart="32.40" from="5/3to5/4" to="3/2to4/2" departLane="best"/>
    <trip id="217" depart="32.55" from="0/4to0/3" to="2/4to2/3" departLane="best"/>
    <trip id="218" depart="32.70" from="1/3to2/3" to="2/1to3/1" departLane="best"/>
    <trip id="219" depart="32.85" from="1/1to1/2" to="0/3to1/3" departLane="best"/>
    <trip id="220" depart="33.00" from="1/2to1/1" to="1/4to2/4" departLane="best"/>
    <trip id="221" depart="33.15" from="3/1to3/2" to="1/0to0/0" departLane="best"/>
    <trip id="222" depart="33.30" from="1/1to1/2" to="4/1to3/1" departLane="best"/>
    <trip id="223" depart="33.45" from="4/1to4/2" to="0/2to1/2" departLane="best"/>
    <trip id="224" depart="33.60" from="2/0to1/0" to="0/4to1/4" departLane="best"/>
    <trip id="225" depart="33.75" from="0/3to0/2" to="5/3to5/4" departLane="best"/>
    <trip id="226" depart="33.90" from="3/2to3/3" to="2/5to3/5" departLane="best"/>
    <trip id="227" depart="34.05" from="1/3to1/4" to="5/5to4/5" departLane="best"/>
    <trip id="228" depart="34.20" from="2/1to3/1" to="1/5to0/5" departLane="best"/>
    <trip id="229" depart="34.35" from="5/4to5/3" to="2/0to2/1" departLane="best"/>
    <trip id="230" depart="34.50" from="4/5to3/5" to="1/3to1/4" departLane="best"/>
    <trip id="231" depart="34.65" from="0/4to1/4" to="1/1to1/2" departLane="best"/>
    <trip id="232" depart="34.80" from="2/2to1/2" to="4/5to5/5" departLane="best"/>
    <trip id="233" depart="34.95" from="4/2to5/2" to="4/3to5/3" departLane="best"/>
    <trip id="234" depart="35.10" from="2/2to1/2" to="3/5to4/5" departLane="best"/>
    <trip id="235" depart="35.25" from="5/5to4/5" to="1/0to1/1" departLane="best"/>
    <trip id="236" depart="35.40" from="3/1to2/1" to="0/0to1/0" departLane="best"/>
    <trip id="237" depart="35.55" from="2/0to2/1" to="0/0to0/1" departLane="best"/>
    <trip id="238" depart="35.70" from="1/0to0/0" to="2/0to3/0" departLane="best"/>
    <trip id="239" depart="35.85" from="1/5to0/5" to="2/1to2/0" departLane="best"/>
    <trip id="240" depart="36.00" from="4/2to5/2" to="0/2to0/3" departLane="best"/>
    <trip id="241" depart="36.15" from="2/4to1/4" to="4/2to4/3" departLane="best"/>
    <trip id="242" depart="36.30" from="5/1to4/1" to="0/1to0/2" departLane="best"/>
    <trip id="243" depart="36.45" from="2/1to2/2" to="4/0to5/0" departLane="best"/>
    <trip id="244" depart="36.60" from="4/0to3/0" to="4/1to4/0" departLane="best"/>
    <trip id="245" depart="36.75" from="5/4to5/5" to="2/3to2/4" departLane="best"/>
    <trip id="246" depart="36.90" from="4/4to5/4" to="2/3to3/3" departLane="best"/>
    <trip id="247" depart="37.05" from="1/5to0/5" to="2/3to2/4" departLane="best"/>
    <trip id="248" depart="37.20" from="5/3to5/2" to="3/4to4/4" departLane="best"/>
    <trip id="249" depart="37.35" from="1/4to1/3" to="4/4to3/4" departLane="best"/>
    <trip id="250" depart="37.50" from="0/3to1/3" to="0/2to0/1" departLane="best"/>
    <trip id="251" depart="37.65" from="3/3to4/3" to="5/3to5/4" departLane="best"/>
    <trip id="252" depart="37.80" from="5/0to5/1" to="1/3to2/3" departLane="best"/>
    <trip id="253" depart="37.95" from="4/2to5/2" to="5/5to5/4" departLane="best"/>
    <trip id="254" depart="38.10" from="0/1to1/1" to="2/4to3/4" departLane="best"/>
    <trip id="255" depart="38.25" from="1/4to2/4" to="1/5to2/5" departLane="best"/>
    <trip id="256" depart="38.40" from="5/0to5/1" to="3/0to2/0" departLane="best"/>
    <trip id="257" depart="38.55" from="2/0to1/0" to="5/1to5/0" departLane="best"/>
    <trip id="258" depart="38.70" from="0/2to0/3" to="1/1to0/1" departLane="best"/>
    <trip id="259" depart="38.85" from="2/3to1/3" to="5/4to4/4" departLane="best"/>
    <trip id="260" depart="39.00" from="0/2to0/3" to="4/4to5/4" departLane="best"/>
    <trip id="261" depart="39.15" from="5/4to5/5" to="3/4to4/4" departLane="best"/>
    <trip id="262" depart="39.30" from="4/5to5/5" to="5/4to4/4" departLane="best"/>
    <trip id="263" depart="39.45" from="0/0to0/1" to="5/2to5/1" departLane="best"/>
    <trip id="264" depart="39.60" from="5/2to5/1" to="4/2to4/1" departLane="best"/>
    <trip id="265" depart="39.75" from="0/3to0/4" to="2/2to2/3" departLane="best"/>
    <trip id="266" depart="39.90" from="1/4to1/3" to="1/4to0/4" departLane="best"/>
    <trip id="267" depart="40.05" from="0/3to0/2" to="0/3to0/4" departLane="best"/>
    <trip id="268" depart="40.20" from="1/3to1/2" to="1/0to0/0" departLane="best"/>
    <trip id="269" depart="40.35" from="2/2to2/3" to="2/2to1/2" departLane="best"/>
    <trip id="270" depart="40.50" from="5/5to4/5" to="3/2to3/1" departLane="best"/>
    <trip id="271" depart="40.65" from="5/4to5/3" to="5/5to4/5" departLane="best"/>
    <trip id="272" depart="40.80" from="4/0to3/0" to="3/5to4/5" departLane="best"/>
    <trip id="273" depart="40.95" from="4/3to4/2" to="1/5to0/5" departLane="best"/>
    <trip id="274" depart="41.10" from="5/3to5/4" to="1/2to2/2" departLane="best"/>
    <trip id="275" depart="41.25" from="1/4to1/5" to="0/5to1/5" departLane="best"/>
    <trip id="276" depart="41.40" from="3/4to4/4" to="3/0to2/0" departLane="best"/>
    <trip id="277" depart="41.55" from="2/3to3/3" to="0/0to0/1" departLane="best"/>
    <trip id="278" depart="41.70" from="0/0to0/1" to="1/3to0/3" departLane="best"/>
    <trip id="279" depart="41.85" from="4/0to4/1" to="3/5to2/5" departLane="best"/>
    <trip id="280" depart="42.00" from="2/4to1/4" to="2/5to2/4" departLane="best"/>
    <trip id="281" depart="42.15" from="5/2to5/1" to="3/3to3/4" departLane="best"/>
    <trip id="282" depart="42.30" from="2/0to2/1" to="2/3to2/2" departLane="best"/>
    <trip id="283" depart="42.45" from="3/4to2/4" to="1/4to1/3" departLane="best"/>
    <trip id="284" depart="42.60" from="4/1to4/2" to="0/2to1/2" departLane="best"/>
    <trip id="285" depart="42.75" from="2/5to3/5" to="1/1to1/0" departLane="best"/>
    <trip id="286" depart="42.90" from="2/3to2/2" to="2/2to3/2" departLane="best"/>
    <trip id="287" depart="43.05" from="5/0to5/1" to="4/4to3/4" departLane="best"/>
    <trip id="288" depart="43.20" from="5/3to5/4" to="1/1to2/1" departLane="best"/>
    <trip id="289" depart="43.35" from="2/3to2/4" to="0/5to0/4" departLane="best"/>
    <trip id="290" depart="43.50" from="3/4to3/5" to="0/0to0/1" departLane="best"/>
    <trip id="291" depart="43.65" from="0/3to0/4" to="3/4to2/4" departLane="best"/>
    <trip id="292" depart="43.80" from="0/4to0/5" to="1/1to1/2" departLane="best"/>
    <trip id="293" depart="43.95" from="0/1to0/0" to="0/2to0/3" departLane="best"/>
    <trip id="294" depart="44.10" from="4/4to4/5" to="2/4to2/3" departLane="best"/>
    <trip id="295" depart="44.25" from="3/2to3/1" to="4/1to5/1" departLane="best"/>
    <trip id="296" depart="44.40" from="3/0to2/0" to="3/1to3/2" departLane="best"/>
    <trip id="297" depart="44.55" from="4/5to4/4" to="3/5to3/4" departLane="best"/>
    <trip id="298" depart="44.70" from="2/1to3/1" to="1/4to0/4" departLane="best"/>
    <trip id="299" depart="44.85" from="3/0to4/0" to="4/5to5/5" departLane="best"/>
    <trip id="300" depart="45.00" from="4/3to4/2" to="5/5to4/5" departLane="best"/>
    <trip id="301" depart="45.15" from="0/3to0/4" to="3/0to2/0" departLane="best"/>
    <trip id="302" depart="45.30" from="2/4to2/3" to="3/1to2/1" departLane="best"/>
    <trip id="303" depart="45.45" from="1/2to2/2" to="1/1to0/1" departLane="best"/>
    <trip id="304" depart="45.60" from="3/0to3/1" to="1/3to2/3" departLane="best"/>
    <trip id="305" depart="45.75" from="4/0to5/0" to="0/2to1/2" departLane="best"/>
    <trip id="306" depart="45.90" from="1/5to0/5" to="2/5to3/5" departLane="best"/>
    <trip id="307" depart="46.05" from="2/4to1/4" to="3/3to3/4" departLane="best"/>
    <trip id="308" depart="46.20" from="4/3to4/2" to="3/5to4/5" departLane="best"/>
    <trip id="309" depart="46.35" from="4/5to4/4" to="3/1to4/1" departLane="best"/>
    <trip id="310" depart="46.50" from="3/4to2/4" to="3/3to2/3" departLane="best"/>
    <trip id="311" depart="46.65" from="1/0to0/0" to="2/5to2/4" departLane="best"/>
    <trip id="312" depart="46.80" from="5/4to5/3" to="2/3to2/4" departLane="best"/>
    <trip id="313" depart="46.95" from="4/0to3/0" to="2/5to2/4" departLane="best"/>
    <trip id="314" depart="47.10" from="4/2to4/3" to="4/5to4/4" departLane="best"/>
    <trip id="315" depart="47.25" from="4/1to5/1" to="5/4to5/5" departLane="best"/>
    <trip id="316" depart="47.40" from="1/0to0/0" to="1/4to1/3" departLane="best"/>
    <trip id="317" depart="47.55" from="5/2to5/1" to="4/5to5/5" departLane="best"/>
    <trip id="318" depart="47.70" from="4/4to5/4" to="4/1to3/1" departLane="best"/>
    <trip id="319" depart="47.85" from="4/0to5/0" to="1/1to1/2" departLane="best"/>
    <trip id="320" depart="48.00" from="2/1to1/1" to="4/4to4/3" departLane="best"/>
    <trip id="321" depart="48.15" from="1/1to2/1" to="4/3to5/3" departLane="best"/>
    <trip id="322" depart="48.30" from="4/4to4/3" to="4/3to3/3" departLane="best"/>
    <trip id="323" depart="48.45" from="1/2to0/2" to="0/2to0/3" departLane="best"/>
    <trip id="324" depart="48.60" from="2/3to1/3" to="1/5to2/5" departLane="best"/>
    <trip id="325" depart="48.75" from="1/4to1/5" to="3/5to2/5" departLane="best"/>
    <trip id="326" depart="48.90" from="4/2to4/3" to="1/2to1/1" departLane="best"/>
    <trip id="327" depart="49.05" from="3/5to4/5" to="5/2to4/2" departLane="best"/>
    <trip id="328" depart="49.20" from="3/5to4/5" to="3/3to3/2" departLane="best"/>
    <trip id="329" depart="49.35" from="0/4to0/5" to="1/3to1/4" departLane="best"/>
    <trip id="330" depart="49.50" from="3/1to2/1" to="1/5to1/4" departLane="best"/>
    <trip id="331" depart="49.65" from="4/2to5/2" to="4/5to3/5" departLane="best"/>
    <trip id="332" depart="49.80" from="3/1to3/2" to="2/3to2/2" departLane="best"/>
    <trip id="333" depart="49.95" from="0/0to0/1" to="1/1to2/1" departLane="best"/>
    <trip id="334" depart="50.10" from="1/1to1/2" to="1/5to2/5" departLane="best"/>
    <trip id="335" depart="50.25" from="4/2to5/2" to="3/3to3/2" departLane="best"/>
    <trip id="336" depart="50.40" from="0/0to1/0" to="2/5to3/5" departLane="best"/>
    <trip id="337" depart="50.55" from="0/3to0/2" to="2/0to3/0" departLane="best"/>
    <trip id="338" depart="50.70" from="1/2to2/2" to="0/4to0/5" departLane="best"/>
    <trip id="339" depart="50.85" from="4/0to5/0" to="5/5to4/5" departLane="best"/>
    <trip id="340" depart="51.00" from="5/1to5/2" to="2/1to2/0" departLane="best"/>
    <trip id="341" depart="51.15" from="5/5to4/5" to="1/3to2/3" departLane="best"/>
    <trip id="342" depart="51.30" from="2/1to3/1" to="3/2to3/1" departLane="best"/>
    <trip id="343" depart="51.45" from="5/3to5/2" to="4/2to3/2" departLane="best"/>
    <trip id="344" depart="51.60" from="4/2to3/2" to="1/2to1/3" departLane="best"/>
    <trip id="345" depart="51.75" from="0/3to1/3" to="2/5to1/5" departLane="best"/>
    <trip id="346" depart="51.90" from="3/4to3/5" to="0/4to1/4" departLane="best"/>
    <trip id="347" depart="52.05" from="0/5to0/4" to="3/3to4/3" departLane="best"/>
    <trip id="348" depart="52.20" from="4/4to4/5" to="3/4to3/3" departLane="best"/>
    <trip id="349" depart="52.35" from="1/4to1/3" to="2/1to2/2" departLane="best"/>
    <trip id="350" depart="52.50" from="2/1to3/1" to="1/3to1/4" departLane="best"/>
    <trip id="351" depart="52.65" from="0/3to0/2" to="5/2to4/2" departLane="best"/>
    <trip id="352" depart="52.80" from="0/4to0/3" to="1/0to2/0" departLane="best"/>
    <trip id="353" depart="52.95" from="1/4to1/3" to="5/2to5/1" departLane="best"/>
    <trip id="354" depart="53.10" from="5/0to5/1" to="0/3to0/4" departLane="best"/>
    <trip id="355" depart="53.25" from="2/2to3/2" to="1/0to0/0" departLane="best"/>