<additional>
	<vType id="RSU" color="255,0,0" guiShape="bus"/>

	<vehicle id="800" type="RSU" depart="0" departPos="1164.07" color="255,0,0">
		<route edges="24/4"/>
		<stop lane="24/4_0" parking="true" endPos="1164.07" until="799"/>
	</vehicle>
	<vehicle id="801" type="RSU" depart="0" departPos="260.11" color="255,0,0">
		<route edges="43"/>
		<stop lane="43_0" parking="true" endPos="260.11" until="799"/>
	</vehicle>
	<vehicle id="802" type="RSU" depart="0" departPos="135.24" color="255,0,0">
		<route edges="574"/>
		<stop lane="574_0" parking="true" endPos="135.24" until="799"/>
	</vehicle>
	<vehicle id="803" type="RSU" depart="0" departPos="68.62" color="255,0,0">
		<route edges="-18"/>
		<stop lane="-18_0" parking="true" endPos="68.62" until="799"/>
	</vehicle>
	<vehicle id="804" type="RSU" depart="0" departPos="89.92" color="255,0,0">
		<route edges="-14/2"/>
		<stop lane="-14/2_0" parking="true" endPos="89.92" until="799"/>
	</vehicle>
	<vehicle id="805" type="RSU" depart="0" departPos="1163.29" color="255,0,0">
		<route edges="122/4"/>
		<stop lane="122/4_0" parking="true" endPos="1163.29" until="799"/>
	</vehicle>
	<vehicle id="806" type="RSU" depart="0" departPos="18.69" color="255,0,0">
		<route edges="-151/1"/>
		<stop lane="-151/1_0" parking="true" endPos="18.69" until="799"/>
	</vehicle>
	<vehicle id="807" type="RSU" depart="0" departPos="116.7" color="255,0,0">
		<route edges="33/1"/>
		<stop lane="33/1_0" parking="true" endPos="116.7" until="799"/>
	</vehicle>
	<vehicle id="808" type="RSU" depart="0" departPos="31919.02" color="255,0,0">
		<route edges="105"/>
		<stop lane="105_0" parking="true" endPos="31919.02" until="799"/>
	</vehicle>
	<vehicle id="809" type="RSU" depart="0" departPos="260.11" color="255,0,0">
		<route edges="-43"/>
		<stop lane="-43_0" parking="true" endPos="260.11" until="799"/>
	</vehicle>
	<vehicle id="810" type="RSU" depart="0" departPos="116.16" color="255,0,0">
		<route edges="-55"/>
		<stop lane="-55_0" parking="true" endPos="116.16" until="799"/>
	</vehicle>
	<vehicle id="811" type="RSU" depart="0" departPos="573.93" color="255,0,0">
		<route edges="24/2"/>
		<stop lane="24/2_0" parking="true" endPos="573.93" until="799"/>
	</vehicle>
	<vehicle id="812" type="RSU" depart="0" departPos="26.07" color="255,0,0">
		<route edges="139/1"/>
		<stop lane="139/1_0" parking="true" endPos="26.07" until="799"/>
	</vehicle>
	<vehicle id="813" type="RSU" depart="0" departPos="107.4" color="255,0,0">
		<route edges="29/1"/>
		<stop lane="29/1_0" parking="true" endPos="107.4" until="799"/>
	</vehicle>
	<vehicle id="814" type="RSU" depart="0" departPos="223.78" color="255,0,0">
		<route edges="191"/>
		<stop lane="191_0" parking="true" endPos="223.78" until="799"/>
	</vehicle>
	<vehicle id="815" type="RSU" depart="0" departPos="209.84" color="255,0,0">
		<route edges="8/9"/>
		<stop lane="8/9_0" parking="true" endPos="209.84" until="799"/>
	</vehicle>
	<vehicle id="816" type="RSU" depart="0" departPos="201.56" color="255,0,0">
		<route edges="-53"/>
		<stop lane="-53_0" parking="true" endPos="201.56" until="799"/>
	</vehicle>
	<vehicle id="817" type="RSU" depart="0" departPos="11.67" color="255,0,0">
		<route edges="169/1"/>
		<stop lane="169/1_0" parking="true" endPos="11.67" until="799"/>
	</vehicle>
	<vehicle id="818" type="RSU" depart="0" departPos="14.67" color="255,0,0">
		<route edges="167/0"/>
		<stop lane="167/0_0" parking="true" endPos="14.67" until="799"/>
	</vehicle>
	<vehicle id="819" type="RSU" depart="0" departPos="255.78" color="255,0,0">
		<route edges="28/0"/>
		<stop lane="28/0_0" parking="true" endPos="255.78" until="799"/>
	</vehicle>
	<vehicle id="820" type="RSU" depart="0" departPos="185.37" color="255,0,0">
		<route edges="-56/0"/>
		<stop lane="-56/0_0" parking="true" endPos="185.37" until="799"/>
	</vehicle>
	<vehicle id="821" type="RSU" depart="0" departPos="52.65" color="255,0,0">
		<route edges="138"/>
		<stop lane="138_0" parking="true" endPos="52.65" until="799"/>
	</vehicle>
	<vehicle id="822" type="RSU" depart="0" departPos="198.18" color="255,0,0">
		<route edges="-56/2"/>
		<stop lane="-56/2_0" parking="true" endPos="198.18" until="799"/>
	</vehicle>
	<vehicle id="823" type="RSU" depart="0" departPos="179.15" color="255,0,0">
		<route edges="59"/>
		<stop lane="59_0" parking="true" endPos="179.15" until="799"/>
	</vehicle>
	<vehicle id="824" type="RSU" depart="0" departPos="42.83" color="255,0,0">
		<route edges="198"/>
		<stop lane="198_0" parking="true" endPos="42.83" until="799"/>
	</vehicle>
	<vehicle id="825" type="RSU" depart="0" departPos="28.14" color="255,0,0">
		<route edges="-128/2"/>
		<stop lane="-128/2_0" parking="true" endPos="28.14" until="799"/>
	</vehicle>
	<vehicle id="826" type="RSU" depart="0" departPos="288.37" color="255,0,0">
		<route edges="1/7"/>
		<stop lane="1/7_0" parking="true" endPos="288.37" until="799"/>
	</vehicle>
	<vehicle id="827" type="RSU" depart="0" departPos="125.16" color="255,0,0">
		<route edges="139/2"/>
		<stop lane="139/2_0" parking="true" endPos="125.16" until="799"/>
	</vehicle>
	<vehicle id="828" type="RSU" depart="0" departPos="35.14" color="255,0,0">
		<route edges="-48/3"/>
		<stop lane="-48/3_0" parking="true" endPos="35.14" until="799"/>
	</vehicle>
	<vehicle id="829" type="RSU" depart="0" departPos="8.6" color="255,0,0">
		<route edges="-88/0"/>
		<stop lane="-88/0_0" parking="true" endPos="8.6" until="799"/>
	</vehicle>
	<vehicle id="830" type="RSU" depart="0" departPos="107.68" color="255,0,0">
		<route edges="-36/1"/>
		<stop lane="-36/1_0" parking="true" endPos="107.68" until="799"/>
	</vehicle>
	<vehicle id="831" type="RSU" depart="0" departPos="47.58" color="255,0,0">
		<route edges="-136/0"/>
		<stop lane="-136/0_0" parking="true" endPos="47.58" until="799"/>
	</vehicle>
	<vehicle id="832" type="RSU" depart="0" departPos="220.56" color="255,0,0">
		<route edges="8/14"/>
		<stop lane="8/14_0" parking="true" endPos="220.56" until="799"/>
	</vehicle>
	<vehicle id="833" type="RSU" depart="0" departPos="46.85" color="255,0,0">
		<route edges="501/0"/>
		<stop lane="501/0_0" parking="true" endPos="46.85" until="799"/>
	</vehicle>
	<vehicle id="834" type="RSU" depart="0" departPos="125.34" color="255,0,0">
		<route edges="-88/3"/>
		<stop lane="-88/3_0" parking="true" endPos="125.34" until="799"/>
	</vehicle>
	<vehicle id="835" type="RSU" depart="0" departPos="30.11" color="255,0,0">
		<route edges="107/1"/>
		<stop lane="107/1_0" parking="true" endPos="30.11" until="799"/>
	</vehicle>
	<vehicle id="836" type="RSU" depart="0" departPos="7.06" color="255,0,0">
		<route edges="122/3"/>
		<stop lane="122/3_0" parking="true" endPos="7.06" until="799"/>
	</vehicle>
	<vehicle id="837" type="RSU" depart="0" departPos="430.18" color="255,0,0">
		<route edges="7/0"/>
		<stop lane="7/0_0" parking="true" endPos="430.18" until="799"/>
	</vehicle>
	<vehicle id="838" type="RSU" depart="0" departPos="33.94" color="255,0,0">
		<route edges="146"/>
		<stop lane="146_0" parking="true" endPos="33.94" until="799"/>
	</vehicle>
	<vehicle id="839" type="RSU" depart="0" departPos="50.07" color="255,0,0">
		<route edges="103/1"/>
		<stop lane="103/1_0" parking="true" endPos="50.07" until="799"/>
	</vehicle>
	<vehicle id="840" type="RSU" depart="0" departPos="49.03" color="255,0,0">
		<route edges="9/1"/>
		<stop lane="9/1_0" parking="true" endPos="49.03" until="799"/>
	</vehicle>
	<vehicle id="841" type="RSU" depart="0" departPos="149.7" color="255,0,0">
		<route edges="37/1"/>
		<stop lane="37/1_0" parking="true" endPos="149.7" until="799"/>
	</vehicle>
	<vehicle id="842" type="RSU" depart="0" departPos="6.75" color="255,0,0">
		<route edges="47/2"/>
		<stop lane="47/2_0" parking="true" endPos="6.75" until="799"/>
	</vehicle>
	<vehicle id="843" type="RSU" depart="0" departPos="250.78" color="255,0,0">
		<route edges="25/1"/>
		<stop lane="25/1_0" parking="true" endPos="250.78" until="799"/>
	</vehicle>
	<vehicle id="844" type="RSU" depart="0" departPos="180.01" color="255,0,0">
		<route edges="-10"/>
		<stop lane="-10_0" parking="true" endPos="180.01" until="799"/>
	</vehicle>
	<vehicle id="845" type="RSU" depart="0" departPos="97.91" color="255,0,0">
		<route edges="-88/5"/>
		<stop lane="-88/5_0" parking="true" endPos="97.91" until="799"/>
	</vehicle>
	<vehicle id="846" type="RSU" depart="0" departPos="16.25" color="255,0,0">
		<route edges="153/3"/>
		<stop lane="153/3_0" parking="true" endPos="16.25" until="799"/>
	</vehicle>
	<vehicle id="847" type="RSU" depart="0" departPos="116.32" color="255,0,0">
		<route edges="-32/1"/>
		<stop lane="-32/1_0" parking="true" endPos="116.32" until="799"/>
	</vehicle>
	<vehicle id="848" type="RSU" depart="0" departPos="116.23" color="255,0,0">
		<route edges="30/1"/>
		<stop lane="30/1_0" parking="true" endPos="116.23" until="799"/>
	</vehicle>
	<vehicle id="849" type="RSU" depart="0" departPos="142.75" color="255,0,0">
		<route edges="621"/>
		<stop lane="621_0" parking="true" endPos="142.75" until="799"/>
	</vehicle>
	<vehicle id="850" type="RSU" depart="0" departPos="28.14" color="255,0,0">
		<route edges="128/2"/>
		<stop lane="128/2_0" parking="true" endPos="28.14" until="799"/>
	</vehicle>
	<vehicle id="851" type="RSU" depart="0" departPos="760.73" color="255,0,0">
		<route edges="498"/>
		<stop lane="498_0" parking="true" endPos="760.73" until="799"/>
	</vehicle>
	<vehicle id="852" type="RSU" depart="0" departPos="118.97" color="255,0,0">
		<route edges="172/3"/>
		<stop lane="172/3_0" parking="true" endPos="118.97" until="799"/>
	</vehicle>
	<vehicle id="853" type="RSU" depart="0" departPos="48.87" color="255,0,0">
		<route edges="117/1"/>
		<stop lane="117/1_0" parking="true" endPos="48.87" until="799"/>
	</vehicle>
	<vehicle id="854" type="RSU" depart="0" departPos="136.44" color="255,0,0">
		<route edges="152"/>
		<stop lane="152_0" parking="true" endPos="136.44" until="799"/>
	</vehicle>
	<vehicle id="855" type="RSU" depart="0" departPos="198.18" color="255,0,0">
		<route edges="56/2"/>
		<stop lane="56/2_0" parking="true" endPos="198.18" until="799"/>
	</vehicle>
	<vehicle id="856" type="RSU" depart="0" departPos="228.45" color="255,0,0">
		<route edges="-144"/>
		<stop lane="-144_0" parking="true" endPos="228.45" until="799"/>
	</vehicle>
	<vehicle id="857" type="RSU" depart="0" departPos="271.1" color="255,0,0">
		<route edges="500/0"/>
		<stop lane="500/0_0" parking="true" endPos="271.1" until="799"/>
	</vehicle>
	<vehicle id="858" type="RSU" depart="0" departPos="81.92" color="255,0,0">
		<route edges="22/8"/>
		<stop lane="22/8_0" parking="true" endPos="81.92" until="799"/>
	</vehicle>
	<vehicle id="859" type="RSU" depart="0" departPos="106.67" color="255,0,0">
		<route edges="34/0"/>
		<stop lane="34/0_0" parking="true" endPos="106.67" until="799"/>
	</vehicle>
	<vehicle id="860" type="RSU" depart="0" departPos="277.43" color="255,0,0">
		<route edges="8/8"/>
		<stop lane="8/8_0" parking="true" endPos="277.43" until="799"/>
	</vehicle>
	<vehicle id="861" type="RSU" depart="0" departPos="297.2" color="255,0,0">
		<route edges="8/13"/>
		<stop lane="8/13_0" parking="true" endPos="297.2" until="799"/>
	</vehicle>
	<vehicle id="862" type="RSU" depart="0" departPos="11.45" color="255,0,0">
		<route edges="22/1"/>
		<stop lane="22/1_0" parking="true" endPos="11.45" until="799"/>
	</vehicle>
	<vehicle id="863" type="RSU" depart="0" departPos="285.22" color="255,0,0">
		<route edges="40"/>
		<stop lane="40_0" parking="true" endPos="285.22" until="799"/>
	</vehicle>
	<vehicle id="864" type="RSU" depart="0" departPos="57.87" color="255,0,0">
		<route edges="-25/0"/>
		<stop lane="-25/0_0" parking="true" endPos="57.87" until="799"/>
	</vehicle>
	<vehicle id="865" type="RSU" depart="0" departPos="250.33" color="255,0,0">
		<route edges="169/2"/>
		<stop lane="169/2_0" parking="true" endPos="250.33" until="799"/>
	</vehicle>
	<vehicle id="866" type="RSU" depart="0" departPos="117.57" color="255,0,0">
		<route edges="-161/2"/>
		<stop lane="-161/2_0" parking="true" endPos="117.57" until="799"/>
	</vehicle>
	<vehicle id="867" type="RSU" depart="0" departPos="187.9" color="255,0,0">
		<route edges="172/5"/>
		<stop lane="172/5_0" parking="true" endPos="187.9" until="799"/>
	</vehicle>
	<vehicle id="868" type="RSU" depart="0" departPos="81.88" color="255,0,0">
		<route edges="52/1"/>
		<stop lane="52/1_0" parking="true" endPos="81.88" until="799"/>
	</vehicle>
	<vehicle id="869" type="RSU" depart="0" departPos="154.58" color="255,0,0">
		<route edges="3/5"/>
		<stop lane="3/5_0" parking="true" endPos="154.58" until="799"/>
	</vehicle>
	<vehicle id="870" type="RSU" depart="0" departPos="261.63" color="255,0,0">
		<route edges="21/7"/>
		<stop lane="21/7_0" parking="true" endPos="261.63" until="799"/>
	</vehicle>
	<vehicle id="871" type="RSU" depart="0" departPos="161.71" color="255,0,0">
		<route edges="150"/>
		<stop lane="150_0" parking="true" endPos="161.71" until="799"/>
	</vehicle>
	<vehicle id="872" type="RSU" depart="0" departPos="26.88" color="255,0,0">
		<route edges="118/2"/>
		<stop lane="118/2_0" parking="true" endPos="26.88" until="799"/>
	</vehicle>
	<vehicle id="873" type="RSU" depart="0" departPos="268.98" color="255,0,0">
		<route edges="-187/1"/>
		<stop lane="-187/1_0" parking="true" endPos="268.98" until="799"/>
	</vehicle>
	<vehicle id="874" type="RSU" depart="0" departPos="111.08" color="255,0,0">
		<route edges="-14/1"/>
		<stop lane="-14/1_0" parking="true" endPos="111.08" until="799"/>
	</vehicle>
	<vehicle id="875" type="RSU" depart="0" departPos="89.87" color="255,0,0">
		<route edges="-27/2"/>
		<stop lane="-27/2_0" parking="true" endPos="89.87" until="799"/>
	</vehicle>
	<vehicle id="876" type="RSU" depart="0" departPos="7.01" color="255,0,0">
		<route edges="24/3"/>
		<stop lane="24/3_0" parking="true" endPos="7.01" until="799"/>
	</vehicle>
	<vehicle id="877" type="RSU" depart="0" departPos="134.23" color="255,0,0">
		<route edges="41/2"/>
		<stop lane="41/2_0" parking="true" endPos="134.23" until="799"/>
	</vehicle>
	<vehicle id="878" type="RSU" depart="0" departPos="72.58" color="255,0,0">
		<route edges="139/0"/>
		<stop lane="139/0_0" parking="true" endPos="72.58" until="799"/>
	</vehicle>
	<vehicle id="879" type="RSU" depart="0" departPos="36.61" color="255,0,0">
		<route edges="165"/>
		<stop lane="165_0" parking="true" endPos="36.61" until="799"/>
	</vehicle>
	<vehicle id="880" type="RSU" depart="0" departPos="47.59" color="255,0,0">
		<route edges="-14/5"/>
		<stop lane="-14/5_0" parking="true" endPos="47.59" until="799"/>
	</vehicle>
	<vehicle id="881" type="RSU" depart="0" departPos="248.19" color="255,0,0">
		<route edges="6"/>
		<stop lane="6_0" parking="true" endPos="248.19" until="799"/>
	</vehicle>
	<vehicle id="882" type="RSU" depart="0" departPos="2976.89" color="255,0,0">
		<route edges="20/7"/>
		<stop lane="20/7_0" parking="true" endPos="2976.89" until="799"/>
	</vehicle>
	<vehicle id="883" type="RSU" depart="0" departPos="27.55" color="255,0,0">
		<route edges="143/3"/>
		<stop lane="143/3_0" parking="true" endPos="27.55" until="799"/>
	</vehicle>
	<vehicle id="884" type="RSU" depart="0" departPos="63.63" color="255,0,0">
		<route edges="99"/>
		<stop lane="99_0" parking="true" endPos="63.63" until="799"/>
	</vehicle>
	<vehicle id="885" type="RSU" depart="0" departPos="18.2" color="255,0,0">
		<route edges="143/1"/>
		<stop lane="143/1_0" parking="true" endPos="18.2" until="799"/>
	</vehicle>
	<vehicle id="886" type="RSU" depart="0" departPos="328.33" color="255,0,0">
		<route edges="72/0"/>
		<stop lane="72/0_0" parking="true" endPos="328.33" until="799"/>
	</vehicle>
	<vehicle id="887" type="RSU" depart="0" departPos="92.1" color="255,0,0">
		<route edges="177/1+178/0"/>
		<stop lane="177/1+178/0_0" parking="true" endPos="92.1" until="799"/>
	</vehicle>
	<vehicle id="888" type="RSU" depart="0" departPos="448.25" color="255,0,0">
		<route edges="170/2"/>
		<stop lane="170/2_0" parking="true" endPos="448.25" until="799"/>
	</vehicle>
	<vehicle id="889" type="RSU" depart="0" departPos="41.46" color="255,0,0">
		<route edges="23/10"/>
		<stop lane="23/10_0" parking="true" endPos="41.46" until="799"/>
	</vehicle>
	<vehicle id="890" type="RSU" depart="0" departPos="17.31" color="255,0,0">
		<route edges="110/0"/>
		<stop lane="110/0_0" parking="true" endPos="17.31" until="799"/>
	</vehicle>
	<vehicle id="891" type="RSU" depart="0" departPos="52.25" color="255,0,0">
		<route edges="22/9"/>
		<stop lane="22/9_0" parking="true" endPos="52.25" until="799"/>
	</vehicle>
	<vehicle id="892" type="RSU" depart="0" departPos="7.19" color="255,0,0">
		<route edges="-114"/>
		<stop lane="-114_0" parking="true" endPos="7.19" until="799"/>
	</vehicle>
	<vehicle id="893" type="RSU" depart="0" departPos="49.55" color="255,0,0">
		<route edges="-48/2"/>
		<stop lane="-48/2_0" parking="true" endPos="49.55" until="799"/>
	</vehicle>
	<vehicle id="894" type="RSU" depart="0" departPos="126.71" color="255,0,0">
		<route edges="172/9"/>
		<stop lane="172/9_0" parking="true" endPos="126.71" until="799"/>
	</vehicle>
	<vehicle id="895" type="RSU" depart="0" departPos="272.31" color="255,0,0">
		<route edges="168/6"/>
		<stop lane="168/6_0" parking="true" endPos="272.31" until="799"/>
	</vehicle>
	<vehicle id="896" type="RSU" depart="0" departPos="80.4" color="255,0,0">
		<route edges="135/1"/>
		<stop lane="135/1_0" parking="true" endPos="80.4" until="799"/>
	</vehicle>
	<vehicle id="897" type="RSU" depart="0" departPos="55.18" color="255,0,0">
		<route edges="-141"/>
		<stop lane="-141_0" parking="true" endPos="55.18" until="799"/>
	</vehicle>
	<vehicle id="898" type="RSU" depart="0" departPos="187.53" color="255,0,0">
		<route edges="-39"/>
		<stop lane="-39_0" parking="true" endPos="187.53" until="799"/>
	</vehicle>
	<vehicle id="899" type="RSU" depart="0" departPos="87.3" color="255,0,0">
		<route edges="94/3"/>
		<stop lane="94/3_0" parking="true" endPos="87.3" until="799"/>
	</vehicle>
	<vehicle id="900" type="RSU" depart="0" departPos="49.76" color="255,0,0">
		<route edges="1/4"/>
		<stop lane="1/4_0" parking="true" endPos="49.76" until="799"/>
	</vehicle>
	<vehicle id="901" type="RSU" depart="0" departPos="664.68" color="255,0,0">
		<route edges="172/10"/>
		<stop lane="172/10_0" parking="true" endPos="664.68" until="799"/>
	</vehicle>
	<vehicle id="902" type="RSU" depart="0" departPos="284.12" color="255,0,0">
		<route edges="20/3"/>
		<stop lane="20/3_0" parking="true" endPos="284.12" until="799"/>
	</vehicle>
	<vehicle id="903" type="RSU" depart="0" departPos="117.32" color="255,0,0">
		<route edges="20/1"/>
		<stop lane="20/1_0" parking="true" endPos="117.32" until="799"/>
	</vehicle>
	<vehicle id="904" type="RSU" depart="0" departPos="275.7" color="255,0,0">
		<route edges="-42"/>
		<stop lane="-42_0" parking="true" endPos="275.7" until="799"/>
	</vehicle>
	<vehicle id="905" type="RSU" depart="0" departPos="216.71" color="255,0,0">
		<route edges="-88/1"/>
		<stop lane="-88/1_0" parking="true" endPos="216.71" until="799"/>
	</vehicle>
	<vehicle id="906" type="RSU" depart="0" departPos="3026.0" color="255,0,0">
		<route edges="19/0"/>
		<stop lane="19/0_0" parking="true" endPos="3026.0" until="799"/>
	</vehicle>
	<vehicle id="907" type="RSU" depart="0" departPos="5.87" color="255,0,0">
		<route edges="48/5"/>
		<stop lane="48/5_0" parking="true" endPos="5.87" until="799"/>
	</vehicle>
	<vehicle id="908" type="RSU" depart="0" departPos="7.97" color="255,0,0">
		<route edges="-88/7"/>
		<stop lane="-88/7_0" parking="true" endPos="7.97" until="799"/>
	</vehicle>
	<vehicle id="909" type="RSU" depart="0" departPos="50.07" color="255,0,0">
		<route edges="-103/1"/>
		<stop lane="-103/1_0" parking="true" endPos="50.07" until="799"/>
	</vehicle>
	<vehicle id="910" type="RSU" depart="0" departPos="16.29" color="255,0,0">
		<route edges="143/4"/>
		<stop lane="143/4_0" parking="true" endPos="16.29" until="799"/>
	</vehicle>
	<vehicle id="911" type="RSU" depart="0" departPos="42.92" color="255,0,0">
		<route edges="153/2"/>
		<stop lane="153/2_0" parking="true" endPos="42.92" until="799"/>
	</vehicle>
	<vehicle id="912" type="RSU" depart="0" departPos="5.87" color="255,0,0">
		<route edges="-48/5"/>
		<stop lane="-48/5_0" parking="true" endPos="5.87" until="799"/>
	</vehicle>
	<vehicle id="913" type="RSU" depart="0" departPos="56.84" color="255,0,0">
		<route edges="477"/>
		<stop lane="477_0" parking="true" endPos="56.84" until="799"/>
	</vehicle>
	<vehicle id="914" type="RSU" depart="0" departPos="87.55" color="255,0,0">
		<route edges="-156/0"/>
		<stop lane="-156/0_0" parking="true" endPos="87.55" until="799"/>
	</vehicle>
	<vehicle id="915" type="RSU" depart="0" departPos="73.04" color="255,0,0">
		<route edges="-48/1"/>
		<stop lane="-48/1_0" parking="true" endPos="73.04" until="799"/>
	</vehicle>
	<vehicle id="916" type="RSU" depart="0" departPos="84.79" color="255,0,0">
		<route edges="155/0"/>
		<stop lane="155/0_0" parking="true" endPos="84.79" until="799"/>
	</vehicle>
	<vehicle id="917" type="RSU" depart="0" departPos="55.18" color="255,0,0">
		<route edges="141"/>
		<stop lane="141_0" parking="true" endPos="55.18" until="799"/>
	</vehicle>
	<vehicle id="918" type="RSU" depart="0" departPos="221.91" color="255,0,0">
		<route edges="501/1"/>
		<stop lane="501/1_0" parking="true" endPos="221.91" until="799"/>
	</vehicle>
	<vehicle id="919" type="RSU" depart="0" departPos="227.91" color="255,0,0">
		<route edges="52/3"/>
		<stop lane="52/3_0" parking="true" endPos="227.91" until="799"/>
	</vehicle>
	<vehicle id="920" type="RSU" depart="0" departPos="64.96" color="255,0,0">
		<route edges="132"/>
		<stop lane="132_0" parking="true" endPos="64.96" until="799"/>
	</vehicle>
	<vehicle id="921" type="RSU" depart="0" departPos="10.32" color="255,0,0">
		<route edges="479"/>
		<stop lane="479_0" parking="true" endPos="10.32" until="799"/>
	</vehicle>
	<vehicle id="922" type="RSU" depart="0" departPos="39.8" color="255,0,0">
		<route edges="-187/0"/>
		<stop lane="-187/0_0" parking="true" endPos="39.8" until="799"/>
	</vehicle>
	<vehicle id="923" type="RSU" depart="0" departPos="136.44" color="255,0,0">
		<route edges="-152"/>
		<stop lane="-152_0" parking="true" endPos="136.44" until="799"/>
	</vehicle>
	<vehicle id="924" type="RSU" depart="0" departPos="126.98" color="255,0,0">
		<route edges="22/7"/>
		<stop lane="22/7_0" parking="true" endPos="126.98" until="799"/>
	</vehicle>
	<vehicle id="925" type="RSU" depart="0" departPos="166.86" color="255,0,0">
		<route edges="169/7"/>
		<stop lane="169/7_0" parking="true" endPos="166.86" until="799"/>
	</vehicle>
	<vehicle id="926" type="RSU" depart="0" departPos="129.28" color="255,0,0">
		<route edges="134"/>
		<stop lane="134_0" parking="true" endPos="129.28" until="799"/>
	</vehicle>
	<vehicle id="927" type="RSU" depart="0" departPos="46.91" color="255,0,0">
		<route edges="153/0"/>
		<stop lane="153/0_0" parking="true" endPos="46.91" until="799"/>
	</vehicle>
	<vehicle id="928" type="RSU" depart="0" departPos="72.83" color="255,0,0">
		<route edges="52/5"/>
		<stop lane="52/5_0" parking="true" endPos="72.83" until="799"/>
	</vehicle>
	<vehicle id="929" type="RSU" depart="0" departPos="203.9" color="255,0,0">
		<route edges="22/3"/>
		<stop lane="22/3_0" parking="true" endPos="203.9" until="799"/>
	</vehicle>
	<vehicle id="930" type="RSU" depart="0" departPos="73.51" color="255,0,0">
		<route edges="52/7"/>
		<stop lane="52/7_0" parking="true" endPos="73.51" until="799"/>
	</vehicle>
	<vehicle id="931" type="RSU" depart="0" departPos="94.02" color="255,0,0">
		<route edges="52/0"/>
		<stop lane="52/0_0" parking="true" endPos="94.02" until="799"/>
	</vehicle>
	<vehicle id="932" type="RSU" depart="0" departPos="216.71" color="255,0,0">
		<route edges="88/1"/>
		<stop lane="88/1_0" parking="true" endPos="216.71" until="799"/>
	</vehicle>
	<vehicle id="933" type="RSU" depart="0" departPos="1.17" color="255,0,0">
		<route edges="21/5"/>
		<stop lane="21/5_0" parking="true" endPos="1.17" until="799"/>
	</vehicle>
	<vehicle id="934" type="RSU" depart="0" departPos="43.74" color="255,0,0">
		<route edges="170/1"/>
		<stop lane="170/1_0" parking="true" endPos="43.74" until="799"/>
	</vehicle>
	<vehicle id="935" type="RSU" depart="0" departPos="31.99" color="255,0,0">
		<route edges="169/5"/>
		<stop lane="169/5_0" parking="true" endPos="31.99" until="799"/>
	</vehicle>
	<vehicle id="936" type="RSU" depart="0" departPos="322.02" color="255,0,0">
		<route edges="-41/0"/>
		<stop lane="-41/0_0" parking="true" endPos="322.02" until="799"/>
	</vehicle>
	<vehicle id="937" type="RSU" depart="0" departPos="89.35" color="255,0,0">
		<route edges="-140/3"/>
		<stop lane="-140/3_0" parking="true" endPos="89.35" until="799"/>
	</vehicle>
	<vehicle id="938" type="RSU" depart="0" departPos="37.49" color="255,0,0">
		<route edges="-151/4"/>
		<stop lane="-151/4_0" parking="true" endPos="37.49" until="799"/>
	</vehicle>
	<vehicle id="939" type="RSU" depart="0" departPos="28.51" color="255,0,0">
		<route edges="147/1"/>
		<stop lane="147/1_0" parking="true" endPos="28.51" until="799"/>
	</vehicle>
	<vehicle id="940" type="RSU" depart="0" departPos="86.57" color="255,0,0">
		<route edges="52/2"/>
		<stop lane="52/2_0" parking="true" endPos="86.57" until="799"/>
	</vehicle>
	<vehicle id="941" type="RSU" depart="0" departPos="47.32" color="255,0,0">
		<route edges="143/0"/>
		<stop lane="143/0_0" parking="true" endPos="47.32" until="799"/>
	</vehicle>
	<vehicle id="942" type="RSU" depart="0" departPos="90.45" color="255,0,0">
		<route edges="34/1"/>
		<stop lane="34/1_0" parking="true" endPos="90.45" until="799"/>
	</vehicle>
	<vehicle id="943" type="RSU" depart="0" departPos="49.27" color="255,0,0">
		<route edges="9/7"/>
		<stop lane="9/7_0" parking="true" endPos="49.27" until="799"/>
	</vehicle>
	<vehicle id="944" type="RSU" depart="0" departPos="723.02" color="255,0,0">
		<route edges="-44"/>
		<stop lane="-44_0" parking="true" endPos="723.02" until="799"/>
	</vehicle>
	<vehicle id="945" type="RSU" depart="0" departPos="43.39" color="255,0,0">
		<route edges="38"/>
		<stop lane="38_0" parking="true" endPos="43.39" until="799"/>
	</vehicle>
	<vehicle id="946" type="RSU" depart="0" departPos="247.18" color="255,0,0">
		<route edges="23/6"/>
		<stop lane="23/6_0" parking="true" endPos="247.18" until="799"/>
	</vehicle>
	<vehicle id="947" type="RSU" depart="0" departPos="271.39" color="255,0,0">
		<route edges="19/3"/>
		<stop lane="19/3_0" parking="true" endPos="271.39" until="799"/>
	</vehicle>
	<vehicle id="948" type="RSU" depart="0" departPos="108.53" color="255,0,0">
		<route edges="-27/3"/>
		<stop lane="-27/3_0" parking="true" endPos="108.53" until="799"/>
	</vehicle>
	<vehicle id="949" type="RSU" depart="0" departPos="275.58" color="255,0,0">
		<route edges="-14/0"/>
		<stop lane="-14/0_0" parking="true" endPos="275.58" until="799"/>
	</vehicle>
	<vehicle id="950" type="RSU" depart="0" departPos="14.38" color="255,0,0">
		<route edges="143/2"/>
		<stop lane="143/2_0" parking="true" endPos="14.38" until="799"/>
	</vehicle>
	<vehicle id="951" type="RSU" depart="0" departPos="116.32" color="255,0,0">
		<route edges="5/4"/>
		<stop lane="5/4_0" parking="true" endPos="116.32" until="799"/>
	</vehicle>
	<vehicle id="952" type="RSU" depart="0" departPos="48.08" color="255,0,0">
		<route edges="-140/1"/>
		<stop lane="-140/1_0" parking="true" endPos="48.08" until="799"/>
	</vehicle>
	<vehicle id="953" type="RSU" depart="0" departPos="155.47" color="255,0,0">
		<route edges="-161/0"/>
		<stop lane="-161/0_0" parking="true" endPos="155.47" until="799"/>
	</vehicle>
	<vehicle id="954" type="RSU" depart="0" departPos="205.84" color="255,0,0">
		<route edges="484/1"/>
		<stop lane="484/1_0" parking="true" endPos="205.84" until="799"/>
	</vehicle>
	<vehicle id="955" type="RSU" depart="0" departPos="84.87" color="255,0,0">
		<route edges="52/6"/>
		<stop lane="52/6_0" parking="true" endPos="84.87" until="799"/>
	</vehicle>
	<vehicle id="956" type="RSU" depart="0" departPos="210.62" color="255,0,0">
		<route edges="-51/0"/>
		<stop lane="-51/0_0" parking="true" endPos="210.62" until="799"/>
	</vehicle>
	<vehicle id="957" type="RSU" depart="0" departPos="263.39" color="255,0,0">
		<route edges="35/0"/>
		<stop lane="35/0_0" parking="true" endPos="263.39" until="799"/>
	</vehicle>
	<vehicle id="958" type="RSU" depart="0" departPos="264.34" color="255,0,0">
		<route edges="-88/6"/>
		<stop lane="-88/6_0" parking="true" endPos="264.34" until="799"/>
	</vehicle>
	<vehicle id="959" type="RSU" depart="0" departPos="26.88" color="255,0,0">
		<route edges="20/4"/>
		<stop lane="20/4_0" parking="true" endPos="26.88" until="799"/>
	</vehicle>
	<vehicle id="960" type="RSU" depart="0" departPos="64.27" color="255,0,0">
		<route edges="3/7"/>
		<stop lane="3/7_0" parking="true" endPos="64.27" until="799"/>
	</vehicle>
	<vehicle id="961" type="RSU" depart="0" departPos="736.84" color="255,0,0">
		<route edges="169/0"/>
		<stop lane="169/0_0" parking="true" endPos="736.84" until="799"/>
	</vehicle>
	<vehicle id="962" type="RSU" depart="0" departPos="18.65" color="255,0,0">
		<route edges="190/1"/>
		<stop lane="190/1_0" parking="true" endPos="18.65" until="799"/>
	</vehicle>
	<vehicle id="963" type="RSU" depart="0" departPos="18.55" color="255,0,0">
		<route edges="192"/>
		<stop lane="192_0" parking="true" endPos="18.55" until="799"/>
	</vehicle>
	<vehicle id="964" type="RSU" depart="0" departPos="43.04" color="255,0,0">
		<route edges="94/2"/>
		<stop lane="94/2_0" parking="true" endPos="43.04" until="799"/>
	</vehicle>
	<vehicle id="965" type="RSU" depart="0" departPos="12123.83" color="255,0,0">
		<route edges="529"/>
		<stop lane="529_0" parking="true" endPos="12123.83" until="799"/>
	</vehicle>
	<vehicle id="966" type="RSU" depart="0" departPos="127.47" color="255,0,0">
		<route edges="8/7"/>