<?xml version="1.0"?>
<!-- generated on 2017-07-04 16:06:56 by $Id: randomTrips.py 18756 2015-08-31 19:16:33Z behrisch $
  options: -n input_net.net.xml -e 2 -p 0.01 <doubleminus>trip-attributes=departLane="best"
-->
<trips>
	<trip id="13" depart="0.00" from="1/3to2/3" to="0/0to0/1" departLane="best"/>
	<trip id="18" depart="0.00" from="3/2to2/2" to="3/1to2/1" departLane="best"/>
	<trip id="24" depart="0.00" from="3/0to3/1" to="0/2to1/2" departLane="best"/>
	<trip id="27" depart="0.00" from="1/1to0/1" to="2/2to3/2" departLane="best"/>
	<trip id="28" depart="0.00" from="0/0to0/1" to="0/1to0/2" departLane="best"/>
	<trip id="29" depart="0.00" from="2/1to1/1" to="2/0to2/1" departLane="best"/>
	<trip id="31" depart="0.00" from="0/0to0/1" to="1/1to1/0" departLane="best"/>
	<trip id="32" depart="0.00" from="1/1to1/0" to="2/1to3/1" departLane="best"/>
	<trip id="33" depart="0.00" from="3/0to2/0" to="2/3to3/3" departLane="best"/>
	<trip id="37" depart="0.00" from="1/3to1/2" to="0/1to0/0" departLane="best"/>
	<trip id="38" depart="0.00" from="1/1to1/0" to="3/3to2/3" departLane="best"/>
	<trip id="40" depart="0.00" from="1/1to2/1" to="2/0to1/0" departLane="best"/>
	<trip id="41" depart="0.00" from="3/1to3/0" to="2/2to1/2" departLane="best"/>
	<trip id="42" depart="0.00" from="1/3to1/2" to="1/0to1/1" departLane="best"/>
	<trip id="43" depart="0.00" from="1/3to1/2" to="3/1to2/1" departLane="best"/>
	<trip id="44" depart="0.00" from="3/0to2/0" to="2/2to1/2" departLane="best"/>
	<trip id="47" depart="0.00" from="1/1to1/2" to="0/1to0/0" departLane="best"/>
	<trip id="48" depart="0.00" from="3/0to3/1" to="3/0to2/0" departLane="best"/>
	<trip id="49" depart="0.00" from="3/2to3/3" to="2/1to2/0" departLane="best"/>
	<trip id="50" depart="0.00" from="1/1to2/1" to="2/2to2/3" departLane="best"/>
	<trip id="51" depart="0.00" from="3/1to3/2" to="2/0to3/0" departLane="best"/>
	<trip id="53" depart="0.00" from="1/3to2/3" to="3/0to2/0" departLane="best"/>
	<trip id="54" depart="0.00" from="3/1to3/2" to="0/2to0/3" departLane="best"/>
	<trip id="57" depart="0.00" from="1/0to2/0" to="3/2to2/2" departLane="best"/>
	<trip id="58" depart="0.00" from="1/1to2/1" to="0/0to0/1" departLane="best"/>
	<trip id="60" depart="0.00" from="1/1to1/2" to="2/2to2/1" departLane="best"/>
	<trip id="61" depart="0.00" from="3/2to2/2" to="2/3to3/3" departLane="best"/>
	<trip id="62" depart="0.00" from="3/1to3/2" to="3/0to2/0" departLane="best"/>
	<trip id="63" depart="0.00" from="1/1to0/1" to="3/2to3/3" departLane="best"/>
	<trip id="64" depart="0.00" from="2/2to3/2" to="1/3to0/3" departLane="best"/>
	<trip id="67" depart="0.00" from="0/2to1/2" to="3/0to2/0" departLane="best"/>
	<trip id="68" depart="0.00" from="1/0to2/0" to="1/2to0/2" departLane="best"/>
	<trip id="69" depart="0.00" from="1/2to2/2" to="2/1to3/1" departLane="best"/>
	<trip id="70" depart="0.00" from="3/3to3/2" to="1/2to0/2" departLane="best"/>
	<trip id="71" depart="0.00" from="1/1to1/2" to="2/3to3/3" departLane="best"/>
	<trip id="74" depart="0.00" from="1/2to1/3" to="1/0to2/0" departLane="best"/>
	<trip id="75" depart="0.00" from="0/0to0/1" to="2/2to1/2" departLane="best"/>
	<trip id="76" depart="0.00" from="3/2to2/2" to="3/3to3/2" departLane="best"/>
	<trip id="77" depart="0.00" from="3/1to3/0" to="2/3to2/2" departLane="best"/>
	<trip id="78" depart="0.00" from="2/2to3/2" to="2/1to2/0" departLane="best"/>
	<trip id="80" depart="0.00" from="2/0to3/0" to="2/3to1/3" departLane="best"/>
	<trip id="81" depart="0.00" from="2/1to3/1" to="2/0to2/1" departLane="best"/>
	<trip id="82" depart="0.00" from="2/0to1/0" to="2/0to2/1" departLane="best"/>
	<trip id="83" depart="0.00" from="1/2to1/3" to="0/3to1/3" departLane="best"/>
	<trip id="84" depart="0.00" from="2/2to2/3" to="0/0to0/1" departLane="best"/>
	<trip id="85" depart="0.00" from="1/1to1/0" to="3/2to3/3" departLane="best"/>
	<trip id="86" depart="0.00" from="0/1to0/2" to="3/2to3/1" departLane="best"/>
	<trip id="88" depart="0.00" from="3/1to2/1" to="2/3to1/3" departLane="best"/>
	<trip id="89" depart="0.00" from="1/2to2/2" to="3/2to3/3" departLane="best"/>
	<trip id="90" depart="0.00" from="2/0to2/1" to="3/1to2/1" departLane="best"/>
	<trip id="91" depart="0.00" from="3/1to2/1" to="1/3to2/3" departLane="best"/>
	<trip id="92" depart="0.00" from="1/2to1/3" to="1/0to0/0" departLane="best"/>
	<trip id="93" depart="0.00" from="0/2to0/3" to="2/3to3/3" departLane="best"/>
	<trip id="94" depart="0.00" from="1/2to1/1" to="3/1to3/0" departLane="best"/>
	<trip id="95" depart="0.00" from="2/3to1/3" to="2/2to2/1" departLane="best"/>
	<trip id="96" depart="0.00" from="2/1to3/1" to="1/0to2/0" departLane="best"/>
	<trip id="97" depart="0.00" from="2/1to1/1" to="2/0to1/0" departLane="best"/>
	<trip id="100" depart="0.00" from="2/2to2/1" to="3/1to3/2" departLane="best"/>
	<trip id="101" depart="0.00" from="1/0to2/0" to="1/1to1/2" departLane="best"/>
	<trip id="102" depart="0.00" from="1/1to2/1" to="0/2to0/1" departLane="best"/>
	<trip id="103" depart="0.00" from="3/3to3/2" to="3/0to2/0" departLane="best"/>
	<trip id="105" depart="0.00" from="1/2to2/2" to="1/2to1/1" departLane="best"/>
	<trip id="106" depart="0.00" from="0/0to1/0" to="0/1to0/2" departLane="best"/>
	<trip id="107" depart="0.00" from="3/1to3/2" to="1/0to2/0" departLane="best"/>
	<trip id="109" depart="0.00" from="1/2to0/2" to="0/2to0/1" departLane="best"/>
	<trip id="110" depart="0.00" from="3/1to3/2" to="2/1to2/2" departLane="best"/>
	<trip id="111" depart="0.00" from="2/0to3/0" to="0/2to0/1" departLane="best"/>
	<trip id="112" depart="0.00" from="0/2to0/3" to="1/0to0/0" departLane="best"/>
	<trip id="113" depart="0.00" from="3/1to2/1" to="0/3to1/3" departLane="best"/>
	<trip id="114" depart="0.00" from="3/1to2/1" to="1/2to1/3" departLane="best"/>
	<trip id="115" depart="0.00" from="2/2to2/1" to="3/1to3/0" departLane="best"/>
	<trip id="116" depart="0.00" from="1/0to1/1" to="3/3to2/3" departLane="best"/>
	<trip id="117" depart="0.00" from="0/2to1/2" to="1/3to1/2" departLane="best"/>
	<trip id="118" depart="0.00" from="0/1to0/0" to="2/0to1/0" departLane="best"/>
	<trip id="119" depart="0.00" from="3/0to2/0" to="3/3to2/3" departLane="best"/>
	<trip id="122" depart="0.00" from="2/2to2/1" to="1/1to2/1" departLane="best"/>
	<trip id="123" depart="0.00" from="2/1to3/1" to="1/2to2/2" departLane="best"/>
	<trip id="124" depart="0.00" from="1/2to0/2" to="2/0to1/0" departLane="best"/>
	<trip id="125" depart="0.00" from="1/1to1/2" to="3/3to2/3" departLane="best"/>
	<trip id="126" depart="0.00" from="1/0to2/0" to="0/3to1/3" departLane="best"/>
	<trip id="127" depart="0.00" from="1/2to1/1" to="3/3to3/2" departLane="best"/>
	<trip id="128" depart="0.00" from="1/2to1/3" to="2/3to3/3" departLane="best"/>
	<trip id="129" depart="0.00" from="0/1to0/2" to="0/2to1/2" departLane="best"/>
	<trip id="130" depart="0.00" from="1/2to1/3" to="1/2to2/2" departLane="best"/>
	<trip id="132" depart="0.00" from="0/1to1/1" to="1/3to2/3" departLane="best"/>
	<trip id="133" depart="0.00" from="0/2to1/2" to="1/0to2/0" departLane="best"/>
	<trip id="134" depart="0.00" from="2/3to2/2" to="3/0to3/1" departLane="best"/>
	<trip id="135" depart="0.00" from="2/3to2/2" to="1/3to1/2" departLane="best"/>
	<trip id="136" depart="0.00" from="1/3to2/3" to="1/0to2/0" departLane="best"/>
	<trip id="137" depart="0.00" from="0/2to0/3" to="0/2to0/1" departLane="best"/>
	<trip id="138" depart="0.00" from="3/3to2/3" to="1/2to1/1" departLane="best"/>
	<trip id="139" depart="0.00" from="3/3to3/2" to="2/1to2/0" departLane="best"/>
	<trip id="140" depart="0.00" from="1/2to1/1" to="1/2to2/2" departLane="best"/>
	<trip id="141" depart="0.00" from="0/1to0/0" to="0/3to1/3" departLane="best"/>
	<trip id="142" depart="0.00" from="3/2to2/2" to="0/3to0/2" departLane="best"/>
	<trip id="143" depart="0.00" from="3/2to3/3" to="1/1to2/1" departLane="best"/>
	<trip id="144" depart="0.00" from="1/2to1/3" to="2/1to3/1" departLane="best"/>
	<trip id="145" depart="0.00" from="3/3to2/3" to="3/0to2/0" departLane="best"/>
	<trip id="146" depart="0.00" from="3/1to3/2" to="2/1to2/0" departLane="best"/>
	<trip id="147" depart="0.00" from="0/1to0/2" to="2/2to3/2" departLane="best"/>
	<trip id="148" depart="0.00" from="0/1to0/0" to="0/1to1/1" departLane="best"/>
	<trip id="149" depart="0.00" from="3/2to2/2" to="1/2to2/2" departLane="best"/>
	<trip id="150" depart="0.00" from="1/1to1/0" to="1/2to0/2" departLane="best"/>
	<trip id="151" depart="0.00" from="2/3to2/2" to="0/1to0/2" departLane="best"/>
	<trip id="152" depart="0.00" from="2/1to2/2" to="2/3to3/3" departLane="best"/>
	<trip id="153" depart="0.00" from="0/1to0/2" to="1/0to1/1" departLane="best"/>
	<trip id="154" depart="0.00" from="1/2to1/1" to="2/3to1/3" departLane="best"/>
	<trip id="155" depart="0.00" from="2/1to2/0" to="3/3to2/3" departLane="best"/>
	<trip id="156" depart="0.00" from="0/0to0/1" to="0/1to1/1" departLane="best"/>
	<trip id="157" depart="0.00" from="2/1to1/1" to="1/2to1/1" departLane="best"/>
	<trip id="158" depart="0.00" from="1/0to1/1" to="2/0to2/1" departLane="best"/>
	<trip id="159" depart="0.00" from="1/0to1/1" to="2/1to2/0" departLane="best"/>
	<trip id="160" depart="0.00" from="1/1to1/2" to="1/1to2/1" departLane="best"/>
	<trip id="161" depart="0.00" from="1/0to0/0" to="2/2to2/1" departLane="best"/>
	<trip id="162" depart="0.00" from="0/0to1/0" to="2/1to2/2" departLane="best"/>
	<trip id="163" depart="0.00" from="0/1to0/2" to="1/0to0/0" departLane="best"/>
	<trip id="164" depart="0.00" from="2/2to2/3" to="2/2to2/1" departLane="best"/>
	<trip id="165" depart="0.00" from="2/1to3/1" to="1/3to0/3" departLane="best"/>
	<trip id="166" depart="0.00" from="1/3to2/3" to="2/2to2/1" departLane="best"/>
	<trip id="167" depart="0.00" from="0/2to0/3" to="2/1to1/1" departLane="best"/>
	<trip id="168" depart="0.00" from="2/1to3/1" to="2/2to3/2" departLane="best"/>
	<trip id="169" depart="0.00" from="0/1to1/1" to="0/2to0/1" departLane="best"/>
	<trip id="170" depart="0.00" from="2/3to3/3" to="0/2to0/1" departLane="best"/>
	<trip id="171" depart="0.00" from="1/0to2/0" to="0/0to0/1" departLane="best"/>
	<trip id="172" depart="0.00" from="2/2to2/1" to="2/1to3/1" departLane="best"/>
	<trip id="173" depart="0.00" from="2/3to1/3" to="1/2to0/2" departLane="best"/>
	<trip id="174" depart="0.00" from="3/2to3/1" to="0/1to0/2" departLane="best"/>
	<trip id="175" depart="0.00" from="0/2to1/2" to="0/2to0/1" departLane="best"/>
	<trip id="176" depart="0.00" from="2/2to3/2" to="2/3to3/3" departLane="best"/>
	<trip id="177" depart="0.00" from="3/1to2/1" to="0/3to0/2" departLane="best"/>
	<trip id="178" depart="0.00" from="0/2to0/3" to="1/2to1/3" departLane="best"/>
	<trip id="179" depart="0.00" from="3/1to3/0" to="2/1to1/1" departLane="best"/>
	<trip id="180" depart="0.00" from="2/1to2/0" to="3/3to3/2" departLane="best"/>
	<trip id="181" depart="0.00" from="2/1to3/1" to="3/3to2/3" departLane="best"/>
	<trip id="182" depart="0.00" from="2/1to3/1" to="2/1to2/2" departLane="best"/>
	<trip id="183" depart="0.00" from="1/0to2/0" to="3/0to3/1" departLane="best"/>
	<trip id="184" depart="0.00" from="2/1to2/2" to="2/3to2/2" departLane="best"/>
	<trip id="185" depart="0.00" from="2/0to3/0" to="0/2to1/2" departLane="best"/>
	<trip id="186" depart="0.00" from="2/3to3/3" to="2/3to2/2" departLane="best"/>
	<trip id="187" depart="0.00" from="1/2to1/3" to="0/1to1/1" departLane="best"/>
	<trip id="188" depart="0.00" from="2/2to2/1" to="1/1to2/1" departLane="best"/>
	<trip id="189" depart="0.00" from="0/2to0/3" to="0/1to0/2" departLane="best"/>
	<trip id="190" depart="0.00" from="0/2to1/2" to="0/2to0/3" departLane="best"/>
	<trip id="191" depart="0.00" from="2/2to2/3" to="2/1to2/0" departLane="best"/>
	<trip id="192" depart="0.00" from="1/3to0/3" to="3/2to3/1" departLane="best"/>
	<trip id="193" depart="0.00" from="1/1to1/2" to="0/1to0/0" departLane="best"/>
	<trip id="194" depart="0.00" from="0/0to1/0" to="1/2to1/1" departLane="best"/>
	<trip id="195" depart="0.00" from="3/0to2/0" to="0/1to1/1" departLane="best"/>
	<trip id="196" depart="0.00" from="2/2to2/1" to="3/3to2/3" departLane="best"/>
	<trip id="197" depart="0.00" from="1/0to1/1" to="3/1to2/1" departLane="best"/>
	<trip id="198" depart="0.00" from="1/0to2/0" to="3/0to2/0" departLane="best"/>
	<trip id="199" depart="0.00" from="1/0to1/1" to="2/0to1/0" departLane="best"/>
</trips>