<?xml version="1.0" encoding="UTF-8"?>

<!-- generated on 04/06/18 10:14:01 by SUMO duarouter Version 0.24.0
<?xml version="1.0" encoding="UTF-8"?>

<configuration xmlns:xsi="http://www.w3.org/2001/XMLSchema-instance" xsi:noNamespaceSchemaLocation="http://sumo.dlr.de/xsd/duarouterConfiguration.xsd">

    <input>
        <net-file value="input_net.net.xml"/>
        <additional-files value="type.add.xml"/>
        <trip-files value="trips.trips.xml"/>
    </input>

    <output>
        <output-file value="routes.rou.xml"/>
    </output>

    <time>
        <begin value="0"/>
        <end value="900"/>
    </time>

</configuration>
-->

<routes xmlns:xsi="http://www.w3.org/2001/XMLSchema-instance" xsi:noNamespaceSchemaLocation="http://sumo.dlr.de/xsd/routes_file.xsd">
    <vehicle id="0" depart="0.00" departLane="best">
        <route edges="0/2to1/2 1/2to0/2 0/2to0/3 0/3to0/4 0/4to0/5 0/5to1/5"/>
    </vehicle>
    <vType id="RSU" guiShape="bus" color="red"/>
    <vehicle id="800" type="RSU" depart="0.00" departPos="999.00" color="red">
        <route edges="1/5to1/4"/>
        <stop lane="1/5to1/4_0" endPos="999.00" until="899.00" parking="1"/>
    </vehicle>
    <vehicle id="801" type="RSU" depart="0.00" departPos="999.00" color="red">
        <route edges="2/1to2/0"/>
        <stop lane="2/1to2/0_0" endPos="999.00" until="899.00" parking="1"/>
    </vehicle>
    <vehicle id="802" type="RSU" depart="0.00" departPos="999.00" color="red">
        <route edges="3/3to3/2"/>
        <stop lane="3/3to3/2_0" endPos="999.00" until="899.00" parking="1"/>
    </vehicle>
    <vehicle id="803" type="RSU" depart="0.00" departPos="999.00" color="red">
        <route edges="3/5to2/5"/>
        <stop lane="3/5to2/5_0" endPos="999.00" until="899.00" parking="1"/>
    </vehicle>
    <vehicle id="804" type="RSU" depart="0.00" departPos="999.00" color="red">
        <route edges="0/3to0/2"/>
        <stop lane="0/3to0/2_0" endPos="999.00" until="899.00" parking="1"/>
    </vehicle>
    <vehicle id="805" type="RSU" depart="0.00" departPos="999.00" color="red">
        <route edges="2/5to1/5"/>
        <stop lane="2/5to1/5_0" endPos="999.00" until="899.00" parking="1"/>
    </vehicle>
    <vehicle id="806" type="RSU" depart="0.00" departPos="999.00" color="red">
        <route edges="5/5to4/5"/>
        <stop lane="5/5to4/5_0" endPos="999.00" until="899.00" parking="1"/>
    </vehicle>
    <vehicle id="807" type="RSU" depart="0.00" departPos="999.00" color="red">
        <route edges="5/4to5/5"/>
        <stop lane="5/4to5/5_0" endPos="999.00" until="899.00" parking="1"/>
    </vehicle>
    <vehicle id="808" type="RSU" depart="0.00" departPos="999.00" color="red">
        <route edges="5/5to5/4"/>
        <stop lane="5/5to5/4_0" endPos="999.00" until="899.00" parking="1"/>
    </vehicle>
    <vehicle id="809" type="RSU" depart="0.00" departPos="999.00" color="red">
        <route edges="0/2to0/1"/>
        <stop lane="0/2to0/1_0" endPos="999.00" until="899.00" parking="1"/>
    </vehicle>
    <vehicle id="810" type="RSU" depart="0.00" departPos="999.00" color="red">
        <route edges="3/1to3/0"/>
        <stop lane="3/1to3/0_0" endPos="999.00" until="899.00" parking="1"/>
    </vehicle>
    <vehicle id="811" type="RSU" depart="0.00" departPos="999.00" color="red">
        <route edges="1/3to1/2"/>
        <stop lane="1/3to1/2_0" endPos="999.00" until="899.00" parking="1"/>
    </vehicle>
    <vehicle id="812" type="RSU" depart="0.00" departPos="999.00" color="red">
        <route edges="0/4to0/3"/>
        <stop lane="0/4to0/3_0" endPos="999.00" until="899.00" parking="1"/>
    </vehicle>
    <vehicle id="813" type="RSU" depart="0.00" departPos="999.00" color="red">
        <route edges="1/5to0/5"/>
        <stop lane="1/5to0/5_0" endPos="999.00" until="899.00" parking="1"/>
    </vehicle>
    <vehicle id="814" type="RSU" depart="0.00" departPos="999.00" color="red">
        <route edges="3/4to3/3"/>
        <stop lane="3/4to3/3_0" endPos="999.00" until="899.00" parking="1"/>
    </vehicle>
    <vehicle id="815" type="RSU" depart="0.00" departPos="999.00" color="red">
        <route edges="2/4to2/3"/>
        <stop lane="2/4to2/3_0" endPos="999.00" until="899.00" parking="1"/>
    </vehicle>
    <vehicle id="816" type="RSU" depart="0.00" departPos="999.00" color="red">
        <route edges="1/2to1/1"/>
        <stop lane="1/2to1/1_0" endPos="999.00" until="899.00" parking="1"/>
    </vehicle>
    <vehicle id="817" type="RSU" depart="0.00" departPos="999.00" color="red">
        <route edges="2/2to2/1"/>
        <stop lane="2/2to2/1_0" endPos="999.00" until="899.00" parking="1"/>
    </vehicle>
    <vehicle id="818" type="RSU" depart="0.00" departPos="999.00" color="red">
        <route edges="3/2to3/1"/>
        <stop lane="3/2to3/1_0" endPos="999.00" until="899.00" parking="1"/>
    </vehicle>
    <vehicle id="819" type="RSU" depart="0.00" departPos="999.00" color="red">
        <route edges="2/3to2/2"/>
        <stop lane="2/3to2/2_0" endPos="999.00" until="899.00" parking="1"/>
    </vehicle>
    <vehicle id="820" type="RSU" depart="0.00" departPos="999.00" color="red">
        <route edges="5/3to5/2"/>
        <stop lane="5/3to5/2_0" endPos="999.00" until="899.00" parking="1"/>
    </vehicle>
    <vehicle id="821" type="RSU" depart="0.00" departPos="999.00" color="red">
        <route edges="1/4to1/3"/>
        <stop lane="1/4to1/3_0" endPos="999.00" until="899.00" parking="1"/>
    </vehicle>
    <vehicle id="822" type="RSU" depart="0.00" departPos="999.00" color="red">
        <route edges="4/5to4/4"/>
        <stop lane="4/5to4/4_0" endPos="999.00" until="899.00" parking="1"/>
    </vehicle>
    <vehicle id="823" type="RSU" depart="0.00" departPos="999.00" color="red">
        <route edges="5/4to5/3"/>
        <stop lane="5/4to5/3_0" endPos="999.00" until="899.00" parking="1"/>
    </vehicle>
    <vehicle id="824" type="RSU" depart="0.00" departPos="999.00" color="red">
        <route edges="2/5to2/4"/>
        <stop lane="2/5to2/4_0" endPos="999.00" until="899.00" parking="1"/>
    </vehicle>
    <vehicle id="825" type="RSU" depart="0.00" departPos="999.00" color="red">
        <route edges="4/2to4/1"/>
        <stop lane="4/2to4/1_0" endPos="999.00" until="899.00" parking="1"/>
    </vehicle>
    <vehicle id="826" type="RSU" depart="0.00" departPos="999.00" color="red">
        <route edges="4/3to4/2"/>
        <stop lane="4/3to4/2_0" endPos="999.00" until="899.00" parking="1"/>
    </vehicle>
    <vehicle id="827" type="RSU" depart="0.00" departPos="999.00" color="red">
        <route edges="5/2to5/1"/>
        <stop lane="5/2to5/1_0" endPos="999.00" until="899.00" parking="1"/>
    </vehicle>
    <vehicle id="828" type="RSU" depart="0.00" departPos="999.00" color="red">
        <route edges="4/1to4/0"/>
        <stop lane="4/1to4/0_0" endPos="999.00" until="899.00" parking="1"/>
    </vehicle>
    <vehicle id="829" type="RSU" depart="0.00" departPos="999.00" color="red">
        <route edges="5/1to5/0"/>
        <stop lane="5/1to5/0_0" endPos="999.00" until="899.00" parking="1"/>
    </vehicle>
    <vehicle id="830" type="RSU" depart="0.00" departPos="999.00" color="red">
        <route edges="1/1to1/0"/>
        <stop lane="1/1to1/0_0" endPos="999.00" until="899.00" parking="1"/>
    </vehicle>
    <vehicle id="831" type="RSU" depart="0.00" departPos="999.00" color="red">
        <route edges="0/5to0/4"/>
        <stop lane="0/5to0/4_0" endPos="999.00" until="899.00" parking="1"/>
    </vehicle>
    <vehicle id="832" type="RSU" depart="0.00" departPos="999.00" color="red">
        <route edges="3/5to3/4"/>
        <stop lane="3/5to3/4_0" endPos="999.00" until="899.00" parking="1"/>
    </vehicle>
    <vehicle id="833" type="RSU" depart="0.00" departPos="999.00" color="red">
        <route edges="0/1to0/0"/>
        <stop lane="0/1to0/0_0" endPos="999.00" until="899.00" parking="1"/>
    </vehicle>
    <vehicle id="834" type="RSU" depart="0.00" departPos="999.00" color="red">
        <route edges="4/4to4/3"/>
        <stop lane="4/4to4/3_0" endPos="999.00" until="899.00" parking="1"/>
    </vehicle>
    <vehicle id="835" type="RSU" depart="0.00" departPos="999.00" color="red">
        <route edges="4/5to3/5"/>
        <stop lane="4/5to3/5_0" endPos="999.00" until="899.00" parking="1"/>
    </vehicle>
    <vehicle id="1" depart="0.15" departLane="best">
        <route edges="2/1to2/2 2/2to2/1 2/1to3/1 3/1to4/1 4/1to4/2"/>
    </vehicle>
    <vehicle id="2" depart="0.30" departLane="best">
        <route edges="5/4to4/4 4/4to3/4 3/4to2/4 2/4to1/4 1/4to1/5 1/5to1/4"/>
    </vehicle>
    <vehicle id="3" depart="0.45" departLane="best">
        <route edges="4/2to4/1 4/1to4/2 4/2to4/3 4/3to4/4 4/4to5/4"/>
    </vehicle>
    <vehicle id="4" depart="0.60" departLane="best">
        <route edges="1/4to1/3 1/3to2/3 2/3to1/3"/>
    </vehicle>
    <vehicle id="5" depart="0.75" departLane="best">
        <route edges="2/2to2/1 2/1to1/1 1/1to1/2 1/2to1/3 1/3to1/4 1/4to2/4"/>
    </vehicle>
    <vehicle id="6" depart="0.90" departLane="best">
        <route edges="4/2to4/1 4/1to3/1 3/1to3/2 3/2to3/3 3/3to3/4 3/4to3/3"/>
    </vehicle>
    <vehicle id="7" depart="1.05" departLane="best">
        <route edges="0/1to0/2 0/2to0/1 0/1to1/1 1/1to2/1"/>
    </vehicle>
    <vehicle id="8" depart="1.20" departLane="best">
        <route edges="2/4to3/4 3/4to3/3 3/3to4/3 4/3to3/3"/>
    </vehicle>
    <vehicle id="9" depart="1.35" departLane="best">
        <route edges="3/1to3/0 3/0to3/1 3/1to3/2 3/2to3/3"/>
    </vehicle>
    <vehicle id="10" depart="1.50" departLane="best">
        <route edges="2/0to2/1 2/1to2/2 2/2to3/2 3/2to4/2 4/2to4/1"/>
    </vehicle>
    <vehicle id="11" depart="1.65" departLane="best">
        <route edges="2/0to1/0 1/0to1/1 1/1to1/2 1/2to2/2 2/2to3/2 3/2to4/2 4/2to5/2 5/2to4/2"/>
    </vehicle>
    <vehicle id="12" depart="1.80" departLane="best">
        <route edges="5/5to4/5 4/5to4/4 4/4to4/3"/>
    </vehicle>
    <vehicle id="13" depart="1.95" departLane="best">
        <route edges="1/3to1/4 1/4to1/3 1/3to1/2 1/2to1/1 1/1to1/0 1/0to2/0 2/0to3/0 3/0to4/0 4/0to5/0 5/0to4/0"/>
    </vehicle>
    <vehicle id="14" depart="2.10" departLane="best">
        <route edges="4/2to5/2 5/2to4/2 4/2to4/3 4/3to4/4 4/4to4/5"/>
    </vehicle>
    <vehicle id="15" depart="2.25" departLane="best">
        <route edges="5/3to5/4 5/4to4/4 4/4to3/4 3/4to2/4 2/4to1/4 1/4to1/3 1/3to1/4"/>
    </vehicle>
    <vehicle id="16" depart="2.40" departLane="best">
        <route edges="3/3to2/3 2/3to2/2 2/2to2/1 2/1to2/0 2/0to3/0 3/0to4/0 4/0to5/0 5/0to4/0"/>
    </vehicle>
    <vehicle id="17" depart="2.55" departLane="best">
        <route edges="3/4to2/4 2/4to1/4 1/4to0/4 0/4to0/3 0/3to0/2 0/2to0/1 0/1to0/0 0/0to1/0"/>
    </vehicle>
    <vehicle id="18" depart="2.70" departLane="best">
        <route edges="4/1to3/1 3/1to3/2 3/2to4/2 4/2to5/2"/>
    </vehicle>
    <vehicle id="19" depart="2.85" departLane="best">
        <route edges="5/1to5/0 5/0to4/0 4/0to3/0 3/0to2/0 2/0to1/0 1/0to1/1 1/1to1/2"/>
    </vehicle>
    <vehicle id="20" depart="3.00" departLane="best">
        <route edges="3/1to4/1 4/1to4/2 4/2to4/1"/>
    </vehicle>
    <vehicle id="21" depart="3.15" departLane="best">
        <route edges="3/2to4/2 4/2to3/2 3/2to2/2 2/2to1/2 1/2to0/2 0/2to0/1 0/1to0/0 0/0to0/1"/>
    </vehicle>
    <vehicle id="22" depart="3.30" departLane="best">
        <route edges="3/5to3/4 3/4to3/3 3/3to4/3 4/3to4/4"/>
    </vehicle>
    <vehicle id="23" depart="3.45" departLane="best">
        <route edges="1/2to1/1 1/1to0/1 0/1to0/2 0/2to0/3 0/3to0/4 0/4to0/5"/>
    </vehicle>
    <vehicle id="24" depart="3.60" departLane="best">
        <route edges="2/5to3/5 3/5to3/4 3/4to3/3 3/3to3/2 3/2to4/2 4/2to4/1"/>
    </vehicle>
    <vehicle id="25" depart="3.75" departLane="best">
        <route edges="3/5to2/5 2/5to3/5 3/5to4/5 4/5to5/5 5/5to4/5"/>
    </vehicle>
    <vehicle id="26" depart="3.90" departLane="best">
        <route edges="4/0to3/0 3/0to2/0 2/0to1/0 1/0to1/1 1/1to1/2"/>
    </vehicle>
    <vehicle id="27" depart="4.05" departLane="best">
        <route edges="4/0to5/0 5/0to5/1 5/1to5/2"/>
    </vehicle>
    <vehicle id="28" depart="4.20" departLane="best">
        <route edges="0/2to1/2 1/2to1/3 1/3to1/4 1/4to0/4"/>
    </vehicle>
    <vehicle id="29" depart="4.35" departLane="best">
        <route edges="5/4to5/3 5/3to5/4 5/4to5/5 5/5to4/5"/>
    </vehicle>
    <vehicle id="30" depart="4.50" departLane="best">
        <route edges="2/4to2/3 2/3to2/2 2/2to2/1 2/1to3/1 3/1to4/1 4/1to5/1 5/1to5/2"/>
    </vehicle>
    <vehicle id="31" depart="4.65" departLane="best">
        <route edges="1/2to1/1 1/1to1/2 1/2to1/3 1/3to1/4"/>
    </vehicle>
    <vehicle id="32" depart="4.80" departLane="best">
        <route edges="3/4to2/4 2/4to1/4 1/4to0/4 0/4to1/4"/>
    </vehicle>
    <vehicle id="33" depart="4.95" departLane="best">
        <route edges="1/4to1/3 1/3to0/3 0/3to0/2 0/2to0/1"/>
    </vehicle>
    <vehicle id="34" depart="5.10" departLane="best">
        <route edges="2/4to2/5 2/5to3/5 3/5to4/5 4/5to4/4"/>
    </vehicle>
    <vehicle id="35" depart="5.25" departLane="best">
        <route edges="5/2to5/1 5/1to4/1 4/1to3/1 3/1to3/2 3/2to3/3 3/3to4/3"/>
    </vehicle>
    <vehicle id="36" depart="5.40" departLane="best">
        <route edges="0/4to0/3 0/3to0/2 0/2to1/2 1/2to2/2 2/2to3/2 3/2to4/2 4/2to4/1"/>
    </vehicle>
    <vehicle id="37" depart="5.55" departLane="best">
        <route edges="2/4to3/4 3/4to2/4 2/4to2/5"/>
    </vehicle>
    <vehicle id="38" depart="5.70" departLane="best">
        <route edges="0/3to1/3 1/3to1/2 1/2to2/2 2/2to3/2 3/2to3/3"/>
    </vehicle>
    <vehicle id="39" depart="5.85" departLane="best">
        <route edges="5/2to5/3 5/3to4/3 4/3to4/2 4/2to5/2"/>
    </vehicle>
    <vehicle id="40" depart="6.00" departLane="best">
        <route edges="4/2to4/1 4/1to4/2 4/2to4/3 4/3to4/4 4/4to4/5 4/5to5/5 5/5to5/4"/>
    </vehicle>
    <vehicle id="41" depart="6.15" departLane="best">
        <route edges="2/4to1/4 1/4to2/4 2/4to3/4 3/4to3/3"/>
    </vehicle>
    <vehicle id="42" depart="6.30" departLane="best">
        <route edges="2/2to2/1 2/1to2/2 2/2to2/3 2/3to3/3 3/3to4/3 4/3to3/3"/>
    </vehicle>
    <vehicle id="43" depart="6.45" departLane="best">
        <route edges="3/3to3/2 3/2to2/2 2/2to1/2 1/2to1/3 1/3to0/3"/>
    </vehicle>
    <vehicle id="44" depart="6.60" departLane="best">
        <route edges="0/2to0/1 0/1to0/2 0/2to1/2 1/2to2/2 2/2to3/2 3/2to4/2 4/2to4/1"/>
    </vehicle>
    <vehicle id="45" depart="6.75" departLane="best">
        <route edges="5/2to5/3 5/3to5/4 5/4to5/5 5/5to4/5"/>
    </vehicle>
    <vehicle id="46" depart="6.90" departLane="best">
        <route edges="4/4to4/5 4/5to3/5 3/5to2/5 2/5to1/5"/>
    </vehicle>
    <vehicle id="47" depart="7.05" departLane="best">
        <route edges="2/1to1/1 1/1to1/2 1/2to1/3 1/3to1/4 1/4to2/4 2/4to3/4 3/4to4/4 4/4to5/4 5/4to5/5"/>
    </vehicle>
    <vehicle id="48" depart="7.20" departLane="best">
        <route edges="3/0to3/1 3/1to2/1 2/1to2/2 2/2to2/3 2/3to2/4 2/4to2/3"/>
    </vehicle>
    <vehicle id="49" depart="7.35" departLane="best">
        <route edges="1/0to0/0 0/0to0/1 0/1to0/2 0/2to0/3 0/3to0/4 0/4to1/4 1/4to2/4 2/4to3/4 3/4to4/4 4/4to4/5"/>
    </vehicle>
    <vehicle id="50" depart="7.50" departLane="best">
        <route edges="4/2to4/3 4/3to3/3 3/3to2/3 2/3to1/3 1/3to1/4 1/4to2/4"/>
    </vehicle>
    <vehicle id="51" depart="7.65" departLane="best">
        <route edges="1/0to2/0 2/0to3/0 3/0to4/0"/>
    </vehicle>
    <vehicle id="52" depart="7.80" departLane="best">
        <route edges="1/5to0/5 0/5to0/4 0/4to0/3 0/3to0/2 0/2to1/2 1/2to2/2 2/2to3/2 3/2to4/2 4/2to5/2"/>
    </vehicle>
    <vehicle id="53" depart="7.95" departLane="best">
        <route edges="4/1to3/1 3/1to3/0 3/0to4/0 4/0to3/0"/>
    </vehicle>
    <vehicle id="54" depart="8.10" departLane="best">
        <route edges="3/4to3/5 3/5to2/5 2/5to1/5 1/5to1/4 1/4to1/3 1/3to1/2 1/2to1/1 1/1to2/1"/>
    </vehicle>
    <vehicle id="55" depart="8.25" departLane="best">
        <route edges="0/2to0/1 0/1to0/2 0/2to0/3 0/3to0/4 0/4to0/5 0/5to1/5"/>
    </vehicle>
    <vehicle id="56" depart="8.40" departLane="best">
        <route edges="4/1to5/1 5/1to4/1 4/1to3/1 3/1to3/2 3/2to3/3 3/3to3/4"/>
    </vehicle>
    <vehicle id="57" depart="8.55" departLane="best">
        <route edges="3/5to2/5 2/5to1/5 1/5to0/5 0/5to0/4 0/4to0/3 0/3to0/2 0/2to0/1 0/1to1/1"/>
    </vehicle>
    <vehicle id="58" depart="8.70" departLane="best">
        <route edges="4/0to5/0 5/0to5/1"/>
    </vehicle>
    <vehicle id="59" depart="8.85" departLane="best">
        <route edges="1/3to1/4 1/4to2/4 2/4to1/4"/>
    </vehicle>
    <vehicle id="60" depart="9.00" departLane="best">
        <route edges="1/0to2/0 2/0to2/1 2/1to2/2 2/2to2/3 2/3to2/4 2/4to3/4 3/4to4/4 4/4to4/5"/>
    </vehicle>
    <vehicle id="61" depart="9.15" departLane="best">
        <route edges="0/2to0/1 0/1to0/2 0/2to0/3 0/3to0/4 0/4to1/4 1/4to2/4 2/4to3/4 3/4to3/5"/>
    </vehicle>
    <vehicle id="62" depart="9.30" departLane="best">
        <route edges="1/2to1/3 1/3to1/4 1/4to2/4 2/4to3/4 3/4to4/4 4/4to5/4 5/4to5/5"/>
    </vehicle>
    <vehicle id="63" depart="9.45" departLane="best">
        <route edges="2/0to2/1 2/1to2/2 2/2to3/2 3/2to4/2 4/2to5/2 5/2to4/2"/>
    </vehicle>
    <vehicle id="64" depart="9.60" departLane="best">
        <route edges="2/3to2/2 2/2to2/1 2/1to2/0 2/0to2/1"/>
    </vehicle>
    <vehicle id="65" depart="9.75" departLane="best">
        <route edges="0/1to0/0 0/0to0/1 0/1to0/2 0/2to0/3 0/3to0/4 0/4to0/5 0/5to1/5 1/5to1/4"/>
    </vehicle>
    <vehicle id="66" depart="9.90" departLane="best">
        <route edges="3/4to3/3 3/3to3/2"/>
    </vehicle>
    <vehicle id="67" depart="10.05" departLane="best">
        <route edges="0/3to0/4 0/4to0/3 0/3to0/2 0/2to1/2 1/2to2/2 2/2to1/2"/>
    </vehicle>
    <vehicle id="68" depart="10.20" departLane="best">
        <route edges="4/3to4/4 4/4to4/3 4/3to3/3"/>
    </vehicle>
    <vehicle id="69" depart="10.35" departLane="best">
        <route edges="5/3to4/3 4/3to3/3 3/3to2/3 2/3to1/3 1/3to1/2 1/2to1/1 1/1to0/1"/>
    </vehicle>
    <vehicle id="70" depart="10.50" departLane="best">
        <route edges="5/3to5/2 5/2to4/2 4/2to3/2 3/2to3/1 3/1to2/1"/>
    </vehicle>
    <vehicle id="71" depart="10.65" departLane="best">
        <route edges="2/1to1/1 1/1to2/1 2/1to2/0"/>
    </vehicle>
    <vehicle id="72" depart="10.80" departLane="best">
        <route edges="5/0to4/0 4/0to3/0 3/0to3/1 3/1to3/2 3/2to3/3 3/3to3/4 3/4to2/4"/>
    </vehicle>
    <vehicle id="73" depart="10.95" departLane="best">
        <route edges="4/4to4/5 4/5to4/4 4/4to4/3 4/3to4/2 4/2to4/1 4/1to4/0 4/0to4/1"/>
    </vehicle>
    <vehicle id="74" depart="11.10" departLane="best">
        <route edges="5/1to5/2 5/2to4/2"/>
    </vehicle>
    <vehicle id="75" depart="11.25" departLane="best">
        <route edges="1/0to0/0 0/0to0/1 0/1to0/2 0/2to0/3 0/3to0/4 0/4to0/5 0/5to1/5 1/5to1/4"/>
    </vehicle>
    <vehicle id="76" depart="11.40" departLane="best">
        <route edges="1/5to1/4 1/4to1/5 1/5to0/5"/>
    </vehicle>
    <vehicle id="77" depart="11.55" departLane="best">
        <route edges="0/1to0/2 0/2to0/1 0/1to0/0 0/0to1/0 1/0to2/0"/>
    </vehicle>
    <vehicle id="78" depart="11.70" departLane="best">
        <route edges="0/0to0/1 0/1to0/2 0/2to0/3 0/3to0/2"/>
    </vehicle>
    <vehicle id="79" depart="11.85" departLane="best">
        <route edges="5/2to5/3 5/3to4/3 4/3to3/3 3/3to2/3 2/3to1/3 1/3to1/2 1/2to1/1 1/1to1/0 1/0to1/1"/>
    </vehicle>
    <vehicle id="80" depart="12.00" departLane="best">
        <route edges="0/3to0/4 0/4to0/5 0/5to0/4"/>
    </vehicle>
    <vehicle id="81" depart="12.15" departLane="best">
        <route edges="3/0to2/0 2/0to2/1 2/1to2/2 2/2to2/3 2/3to2/4"/>
    </vehicle>
    <vehicle id="82" depart="12.30" departLane="best">
        <route edges="1/3to2/3 2/3to3/3 3/3to4/3"/>
    </vehicle>
    <vehicle id="83" depart="12.45" departLane="best">
        <route edges="2/4to3/4 3/4to3/3 3/3to4/3 4/3to5/3 5/3to4/3"/>
    </vehicle>
    <vehicle id="84" depart="12.60" departLane="best">
        <route edges="1/5to1/4 1/4to2/4 2/4to3/4 3/4to4/4 4/4to5/4 5/4to4/4"/>
    </vehicle>
    <vehicle id="85" depart="12.75" departLane="best">
        <route edges="3/0to4/0 4/0to4/1 4/1to4/2 4/2to4/3 4/3to4/4 4/4to5/4 5/4to5/5"/>
    </vehicle>
    <vehicle id="86" depart="12.90" departLane="best">
        <route edges="0/3to1/3 1/3to1/2 1/2to2/2 2/2to3/2"/>
    </vehicle>
    <vehicle id="87" depart="13.05" departLane="best">
        <route edges="4/1to3/1 3/1to3/2 3/2to3/3 3/3to4/3 4/3to5/3"/>
    </vehicle>
    <vehicle id="88" depart="13.20" departLane="best">
        <route edges="0/1to1/1 1/1to1/2 1/2to0/2"/>
    </vehicle>
    <vehicle id="89" depart="13.35" departLane="best">
        <route edges="1/1to2/1 2/1to2/2 2/2to3/2 3/2to4/2 4/2to4/3"/>
    </vehicle>
    <vehicle id="90" depart="13.50" departLane="best">
        <route edges="0/4to0/3 0/3to0/2 0/2to0/1 0/1to0/0 0/0to1/0 1/0to2/0 2/0to3/0 3/0to4/0 4/0to3/0"/>
    </vehicle>
    <vehicle id="91" depart="13.65" departLane="best">
        <route edges="0/5to1/5 1/5to1/4 1/4to2/4 2/4to1/4"/>
    </vehicle>
    <vehicle id="92" depart="13.80" departLane="best">
        <route edges="1/1to1/2 1/2to0/2 0/2to0/3 0/3to0/2"/>
    </vehicle>
    <vehicle id="93" depart="13.95" departLane="best">
        <route edges="2/0to2/1 2/1to2/2 2/2to2/3 2/3to2/4 2/4to3/4 3/4to4/4"/>
    </vehicle>
    <vehicle id="94" depart="14.10" departLane="best">
        <route edges="1/5to2/5 2/5to2/4 2/4to2/3 2/3to2/2"/>
    </vehicle>
    <vehicle id="95" depart="14.25" departLane="best">
        <route edges="4/0to4/1 4/1to4/2 4/2to4/3 4/3to4/4 4/4to4/5 4/5to5/5 5/5to5/4"/>
    </vehicle>
    <vehicle id="96" depart="14.40" departLane="best">
        <route edges="3/1to2/1 2/1to1/1 1/1to0/1 0/1to0/2 0/2to0/3 0/3to0/4 0/4to0/5 0/5to1/5"/>
    </vehicle>
    <vehicle id="97" depart="14.55" departLane="best">
        <route edges="1/4to0/4 0/4to0/3 0/3to0/2 0/2to1/2 1/2to2/2 2/2to3/2 3/2to4/2 4/2to5/2 5/2to5/3"/>
    </vehicle>
    <vehicle id="98" depart="14.70" departLane="best">
        <route edges="4/1to4/2 4/2to4/1 4/1to4/0 4/0to5/0 5/0to5/1"/>
    </vehicle>
    <vehicle id="99" depart="14.85" departLane="best">
        <route edges="5/1to5/2 5/2to4/2 4/2to3/2 3/2to2/2 2/2to2/3 2/3to2/4 2/4to2/5 2/5to1/5"/>
    </vehicle>
    <vehicle id="100" depart="15.00" departLane="best">
        <route edges="4/0to3/0 3/0to3/1 3/1to3/2 3/2to3/3 3/3to3/4"/>
    </vehicle>
    <vehicle id="101" depart="15.15" departLane="best">
        <route edges="4/0to5/0 5/0to4/0 4/0to3/0 3/0to2/0 2/0to1/0 1/0to1/1 1/1to1/2 1/2to1/3 1/3to1/2"/>
    </vehicle>
    <vehicle id="102" depart="15.30" departLane="best">
        <route edges="3/5to4/5 4/5to3/5 3/5to2/5 2/5to2/4 2/4to2/3 2/3to2/2 2/2to2/1 2/1to2/2"/>
    </vehicle>
    <vehicle id="103" depart="15.45" departLane="best">
        <route edges="5/4to5/5 5/5to4/5 4/5to3/5 3/5to2/5 2/5to1/5 1/5to0/5 0/5to0/4 0/4to0/3 0/3to0/2 0/2to0/1 0/1to0/0"/>
    </vehicle>
    <vehicle id="104" depart="15.60" departLane="best">
        <route edges="1/0to2/0 2/0to2/1 2/1to2/2 2/2to3/2 3/2to3/3"/>
    </vehicle>
    <vehicle id="105" depart="15.75" departLane="best">
        <route edges="1/0to0/0 0/0to0/1 0/1to0/2 0/2to0/3 0/3to0/4 0/4to0/5 0/5to1/5 1/5to2/5 2/5to3/5 3/5to4/5 4/5to3/5"/>
    </vehicle>
    <vehicle id="106" depart="15.90" departLane="best">
        <route edges="3/3to3/4 3/4to3/3 3/3to3/2 3/2to4/2 4/2to5/2 5/2to5/1"/>
    </vehicle>
    <vehicle id="107" depart="16.05" departLane="best">
        <route edges="4/2to5/2 5/2to4/2 4/2to3/2 3/2to4/2"/>
    </vehicle>
    <vehicle id="108" depart="16.20" departLane="best">
        <route edges="5/5to4/5 4/5to3/5 3/5to2/5 2/5to3/5"/>
    </vehicle>
    <vehicle id="109" depart="16.35" departLane="best">
        <route edges="1/1to1/0 1/0to1/1 1/1to1/2 1/2to1/3 1/3to2/3 2/3to3/3 3/3to4/3 4/3to4/2"/>
    </vehicle>
    <vehicle id="110" depart="16.50" departLane="best">
        <route edges="1/3to1/2 1/2to1/1 1/1to2/1 2/1to2/0"/>
    </vehicle>
    <vehicle id="111" depart="16.65" departLane="best">
        <route edges="2/4to3/4 3/4to3/3 3/3to4/3 4/3to5/3 5/3to4/3"/>
    </vehicle>
    <vehicle id="112" depart="16.80" departLane="best">
        <route edges="3/1to3/0 3/0to3/1 3/1to3/2 3/2to4/2 4/2to5/2 5/2to4/2"/>
    </vehicle>
    <vehicle id="113" depart="16.95" departLane="best">
        <route edges="0/5to0/4 0/4to0/3 0/3to1/3 1/3to1/2"/>
    </vehicle>
    <vehicle id="114" depart="17.10" departLane="best">
        <route edges="3/4to3/5 3/5to2/5 2/5to1/5 1/5to0/5 0/5to0/4 0/4to0/3 0/3to0/4"/>
    </vehicle>
    <vehicle id="115" depart="17.25" departLane="best">
        <route edges="3/4to2/4 2/4to2/3 2/3to2/2 2/2to2/3"/>
    </vehicle>
    <vehicle id="116" depart="17.40" departLane="best">
        <route edges="4/4to3/4 3/4to3/3 3/3to3/2 3/2to3/1"/>
    </vehicle>
    <vehicle id="117" depart="17.55" departLane="best">
        <route edges="1/1to0/1 0/1to0/0 0/0to1/0 1/0to2/0 2/0to3/0 3/0to4/0 4/0to3/0"/>
    </vehicle>
    <vehicle id="118" depart="17.70" departLane="best">
        <route edges="5/1to4/1 4/1to3/1 3/1to3/2 3/2to3/3 3/3to3/4 3/4to3/3"/>
    </vehicle>
    <vehicle id="119" depart="17.85" departLane="best">
        <route edges="2/3to1/3 1/3to0/3 0/3to0/2 0/2to1/2"/>
    </vehicle>
    <vehicle id="120" depart="18.00" departLane="best">
        <route edges="5/2to5/3 5/3to4/3 4/3to3/3 3/3to2/3 2/3to1/3 1/3to1/2 1/2to1/1 1/1to1/0 1/0to0/0"/>
    </vehicle>
    <vehicle id="121" depart="18.15" departLane="best">
        <route edges="1/4to2/4 2/4to2/3 2/3to2/2 2/2to2/1 2/1to3/1 3/1to4/1 4/1to4/2"/>
    </vehicle>
    <vehicle id="122" depart="18.30" departLane="best">
        <route edges="2/2to2/3 2/3to2/2 2/2to2/1 2/1to2/0 2/0to1/0"/>
    </vehicle>
    <vehicle id="123" depart="18.45" departLane="best">
        <route edges="2/2to2/1 2/1to2/0 2/0to3/0 3/0to4/0 4/0to4/1"/>
    </vehicle>
    <vehicle id="124" depart="18.60" departLane="best">
        <route edges="3/0to2/0 2/0to1/0 1/0to1/1 1/1to1/2 1/2to1/3 1/3to1/4 1/4to1/5 1/5to1/4"/>
    </vehicle>
    <vehicle id="125" depart="18.75" departLane="best">
        <route edges="2/1to2/2 2/2to2/3 2/3to2/2"/>
    </vehicle>
    <vehicle id="126" depart="18.90" departLane="best">
        <route edges="5/0to4/0 4/0to4/1 4/1to5/1 5/1to5/2"/>
    </vehicle>
    <vehicle id="127" depart="19.05" departLane="best">
        <route edges="4/5to4/4 4/4to3/4 3/4to2/4 2/4to2/3 2/3to2/4"/>
    </vehicle>
    <vehicle id="128" depart="19.20" departLane="best">
        <route edges="0/1to0/0 0/0to0/1 0/1to0/2 0/2to0/3 0/3to0/4 0/4to1/4 1/4to1/5"/>
    </vehicle>
    <vehicle id="129" depart="19.35" departLane="best">
        <route edges="3/4to4/4 4/4to4/3 4/3to4/2 4/2to4/1 4/1to5/1 5/1to5/0"/>
    </vehicle>
    <vehicle id="130" depart="19.50" departLane="best">
        <route edges="5/1to5/0 5/0to4/0 4/0to4/1 4/1to4/2 4/2to4/3 4/3to3/3"/>
    </vehicle>
    <vehicle id="131" depart="19.65" departLane="best">
        <route edges="2/2to2/3 2/3to2/2 2/2to2/1 2/1to3/1 3/1to4/1 4/1to5/1"/>
    </vehicle>
    <vehicle id="132" depart="19.80" departLane="best">
        <route edges="2/5to2/4 2/4to2/3 2/3to2/2 2/2to2/1 2/1to3/1 3/1to4/1 4/1to4/0"/>
    </vehicle>
    <vehicle id="133" depart="19.95" departLane="best">
        <route edges="5/5to5/4 5/4to4/4 4/4to3/4 3/4to2/4 2/4to1/4 1/4to0/4 0/4to0/5"/>
    </vehicle>
    <vehicle id="134" depart="20.10" departLane="best">
        <route edges="4/2to4/1 4/1to4/2 4/2to5/2 5/2to5/3"/>
    </vehicle>
    <vehicle id="135" depart="20.25" departLane="best">
        <route edges="0/3to1/3 1/3to2/3 2/3to3/3 3/3to4/3 4/3to5/3 5/3to4/3"/>
    </vehicle>
    <vehicle id="136" depart="20.40" departLane="best">
        <route edges="5/2to4/2 4/2to3/2 3/2to3/3 3/3to3/4 3/4to3/5 3/5to4/5"/>
    </vehicle>
    <vehicle id="137" depart="20.55" departLane="best">
        <route edges="1/5to2/5 2/5to1/5 1/5to0/5 0/5to0/4 0/4to0/3 0/3to0/2 0/2to0/1 0/1to0/0 0/0to1/0"/>
    </vehicle>
    <vehicle id="138" depart="20.70" departLane="best">
        <route edges="5/0to4/0 4/0to4/1 4/1to4/2"/>
    </vehicle>
    <vehicle id="139" depart="20.85" departLane="best">
        <route edges="3/4to2/4 2/4to2/3 2/3to2/2 2/2to2/1 2/1to3/1 3/1to2/1"/>
    </vehicle>
    <vehicle id="140" depart="21.00" departLane="best">
        <route edges="1/1to1/0 1/0to1/1 1/1to1/2 1/2to1/3 1/3to1/4 1/4to2/4 2/4to1/4"/>
    </vehicle>
    <vehicle id="141" depart="21.15" departLane="best">
        <route edges="4/0to5/0 5/0to4/0 4/0to3/0 3/0to3/1 3/1to3/2 3/2to3/3 3/3to3/4"/>
    </vehicle>
    <vehicle id="142" depart="21.30" departLane="best">
        <route edges="0/4to0/3 0/3to0/4 0/4to1/4 1/4to2/4 2/4to3/4 3/4to3/5"/>
    </vehicle>
    <vehicle id="143" depart="21.45" departLane="best">
        <route edges="3/4to2/4 2/4to2/3 2/3to2/2 2/2to2/1 2/1to2/0 2/0to3/0 3/0to4/0 4/0to5/0 5/0to4/0"/>
    </vehicle>
    <vehicle id="144" depart="21.60" departLane="best">
        <route edges="3/3to2/3 2/3to2/4"/>
    </vehicle>
    <vehicle id="145" depart="21.75" departLane="best">
        <route edges="1/3to2/3 2/3to1/3 1/3to1/2"/>
    </vehicle>
    <vehicle id="146" depart="21.90" departLane="best">
        <route edges="1/5to2/5 2/5to1/5 1/5to0/5 0/5to0/4 0/4to1/4"/>
    </vehicle>
    <vehicle id="147" depart="22.05" departLane="best">
        <route edges="3/1to4/1 4/1to3/1 3/1to3/2 3/2to3/3 3/3to3/4 3/4to3/3"/>
    </vehicle>
    <vehicle id="148" depart="22.20" departLane="best">
        <route edges="0/2to0/3 0/3to1/3 1/3to2/3 2/3to3/3 3/3to4/3 4/3to5/3 5/3to4/3"/>
    </vehicle>
    <vehicle id="149" depart="22.35" departLane="best">