<?xml version="1.0" encoding="UTF-8"?>

<!-- generated on 05/13/18 10:10:39 by SUMO duarouter Version 0.24.0
<?xml version="1.0" encoding="UTF-8"?>

<configuration xmlns:xsi="http://www.w3.org/2001/XMLSchema-instance" xsi:noNamespaceSchemaLocation="http://sumo.dlr.de/xsd/duarouterConfiguration.xsd">

    <input>
        <net-file value="input_net.net.xml"/>
        <additional-files value="type.add.xml"/>
        <trip-files value="trips.trips.xml"/>
    </input>

    <output>
        <output-file value="routes.rou.xml"/>
    </output>

    <time>
        <begin value="0"/>
        <end value="600"/>
    </time>

</configuration>
-->

<routes xmlns:xsi="http://www.w3.org/2001/XMLSchema-instance" xsi:noNamespaceSchemaLocation="http://sumo.dlr.de/xsd/routes_file.xsd">
    <vehicle id="0" depart="0.00" departLane="best">
        <route edges="8#12 8#13 8#14 24#0 22#1 122#0 23#0 23#1 -31#1 -31#0 27#2"/>
    </vehicle>
    <vType id="RSU" guiShape="bus" color="red"/>
    <vehicle id="400" type="RSU" depart="0.00" departPos="322.02" color="red">
        <route edges="-41#0"/>
        <stop lane="-41#0_0" endPos="322.02" until="599.00" parking="1"/>
    </vehicle>
    <vehicle id="401" type="RSU" depart="0.00" departPos="142.97" color="red">
        <route edges="1#10"/>
        <stop lane="1#10_0" endPos="142.97" until="599.00" parking="1"/>
    </vehicle>
    <vehicle id="402" type="RSU" depart="0.00" departPos="84.87" color="red">
        <route edges="52#6"/>
        <stop lane="52#6_0" endPos="84.87" until="599.00" parking="1"/>
    </vehicle>
    <vehicle id="403" type="RSU" depart="0.00" departPos="68.62" color="red">
        <route edges="-18"/>
        <stop lane="-18_0" endPos="68.62" until="599.00" parking="1"/>
    </vehicle>
    <vehicle id="404" type="RSU" depart="0.00" departPos="277.43" color="red">
        <route edges="8#8"/>
        <stop lane="8#8_0" endPos="277.43" until="599.00" parking="1"/>
    </vehicle>
    <vehicle id="405" type="RSU" depart="0.00" departPos="103.43" color="red">
        <route edges="-27#1"/>
        <stop lane="-27#1_0" endPos="103.43" until="599.00" parking="1"/>
    </vehicle>
    <vehicle id="406" type="RSU" depart="0.00" departPos="117.57" color="red">
        <route edges="-161#2"/>
        <stop lane="-161#2_0" endPos="117.57" until="599.00" parking="1"/>
    </vehicle>
    <vehicle id="407" type="RSU" depart="0.00" departPos="84.79" color="red">
        <route edges="155#0"/>
        <stop lane="155#0_0" endPos="84.79" until="599.00" parking="1"/>
    </vehicle>
    <vehicle id="408" type="RSU" depart="0.00" departPos="180.01" color="red">
        <route edges="-10"/>
        <stop lane="-10_0" endPos="180.01" until="599.00" parking="1"/>
    </vehicle>
    <vehicle id="409" type="RSU" depart="0.00" departPos="2976.89" color="red">
        <route edges="20#7"/>
        <stop lane="20#7_0" endPos="2976.89" until="599.00" parking="1"/>
    </vehicle>
    <vehicle id="410" type="RSU" depart="0.00" departPos="73.04" color="red">
        <route edges="-48#1"/>
        <stop lane="-48#1_0" endPos="73.04" until="599.00" parking="1"/>
    </vehicle>
    <vehicle id="411" type="RSU" depart="0.00" departPos="260.11" color="red">
        <route edges="-43"/>
        <stop lane="-43_0" endPos="260.11" until="599.00" parking="1"/>
    </vehicle>
    <vehicle id="412" type="RSU" depart="0.00" departPos="116.16" color="red">
        <route edges="-55"/>
        <stop lane="-55_0" endPos="116.16" until="599.00" parking="1"/>
    </vehicle>
    <vehicle id="413" type="RSU" depart="0.00" departPos="30.11" color="red">
        <route edges="107#1"/>
        <stop lane="107#1_0" endPos="30.11" until="599.00" parking="1"/>
    </vehicle>
    <vehicle id="414" type="RSU" depart="0.00" departPos="44.84" color="red">
        <route edges="104#3"/>
        <stop lane="104#3_0" endPos="44.84" until="599.00" parking="1"/>
    </vehicle>
    <vehicle id="415" type="RSU" depart="0.00" departPos="210.62" color="red">
        <route edges="-51#0"/>
        <stop lane="-51#0_0" endPos="210.62" until="599.00" parking="1"/>
    </vehicle>
    <vehicle id="416" type="RSU" depart="0.00" departPos="108.53" color="red">
        <route edges="-27#3"/>
        <stop lane="-27#3_0" endPos="108.53" until="599.00" parking="1"/>
    </vehicle>
    <vehicle id="417" type="RSU" depart="0.00" departPos="184.15" color="red">
        <route edges="52#8"/>
        <stop lane="52#8_0" endPos="184.15" until="599.00" parking="1"/>
    </vehicle>
    <vehicle id="418" type="RSU" depart="0.00" departPos="48.87" color="red">
        <route edges="117#1"/>
        <stop lane="117#1_0" endPos="48.87" until="599.00" parking="1"/>
    </vehicle>
    <vehicle id="419" type="RSU" depart="0.00" departPos="35.14" color="red">
        <route edges="-48#3"/>
        <stop lane="-48#3_0" endPos="35.14" until="599.00" parking="1"/>
    </vehicle>
    <vehicle id="420" type="RSU" depart="0.00" departPos="459.50" color="red">
        <route edges="-115#0"/>
        <stop lane="-115#0_0" endPos="459.50" until="599.00" parking="1"/>
    </vehicle>
    <vehicle id="421" type="RSU" depart="0.00" departPos="28.77" color="red">
        <route edges="8#10"/>
        <stop lane="8#10_0" endPos="28.77" until="599.00" parking="1"/>
    </vehicle>
    <vehicle id="422" type="RSU" depart="0.00" departPos="49.76" color="red">
        <route edges="1#4"/>
        <stop lane="1#4_0" endPos="49.76" until="599.00" parking="1"/>
    </vehicle>
    <vehicle id="423" type="RSU" depart="0.00" departPos="88.41" color="red">
        <route edges="-27#5"/>
        <stop lane="-27#5_0" endPos="88.41" until="599.00" parking="1"/>
    </vehicle>
    <vehicle id="424" type="RSU" depart="0.00" departPos="52.65" color="red">
        <route edges="138"/>
        <stop lane="138_0" endPos="52.65" until="599.00" parking="1"/>
    </vehicle>
    <vehicle id="425" type="RSU" depart="0.00" departPos="670.50" color="red">
        <route edges="171#2"/>
        <stop lane="171#2_0" endPos="670.50" until="599.00" parking="1"/>
    </vehicle>
    <vehicle id="426" type="RSU" depart="0.00" departPos="179.15" color="red">
        <route edges="59"/>
        <stop lane="59_0" endPos="179.15" until="599.00" parking="1"/>
    </vehicle>
    <vehicle id="427" type="RSU" depart="0.00" departPos="37.49" color="red">
        <route edges="-151#4"/>
        <stop lane="-151#4_0" endPos="37.49" until="599.00" parking="1"/>
    </vehicle>
    <vehicle id="428" type="RSU" depart="0.00" departPos="46.85" color="red">
        <route edges="501#0"/>
        <stop lane="501#0_0" endPos="46.85" until="599.00" parking="1"/>
    </vehicle>
    <vehicle id="429" type="RSU" depart="0.00" departPos="86.57" color="red">
        <route edges="52#2"/>
        <stop lane="52#2_0" endPos="86.57" until="599.00" parking="1"/>
    </vehicle>
    <vehicle id="430" type="RSU" depart="0.00" departPos="52.25" color="red">
        <route edges="22#9"/>
        <stop lane="22#9_0" endPos="52.25" until="599.00" parking="1"/>
    </vehicle>
    <vehicle id="431" type="RSU" depart="0.00" departPos="33.94" color="red">
        <route edges="-146"/>
        <stop lane="-146_0" endPos="33.94" until="599.00" parking="1"/>
    </vehicle>
    <vehicle id="432" type="RSU" depart="0.00" departPos="215.83" color="red">
        <route edges="118#1"/>
        <stop lane="118#1_0" endPos="215.83" until="599.00" parking="1"/>
    </vehicle>
    <vehicle id="433" type="RSU" depart="0.00" departPos="201.56" color="red">
        <route edges="53"/>
        <stop lane="53_0" endPos="201.56" until="599.00" parking="1"/>
    </vehicle>
    <vehicle id="434" type="RSU" depart="0.00" departPos="736.84" color="red">
        <route edges="169#0"/>
        <stop lane="169#0_0" endPos="736.84" until="599.00" parking="1"/>
    </vehicle>
    <vehicle id="435" type="RSU" depart="0.00" departPos="111.08" color="red">
        <route edges="-14#1"/>
        <stop lane="-14#1_0" endPos="111.08" until="599.00" parking="1"/>
    </vehicle>
    <vehicle id="436" type="RSU" depart="0.00" departPos="18.49" color="red">
        <route edges="153#1"/>
        <stop lane="153#1_0" endPos="18.49" until="599.00" parking="1"/>
    </vehicle>
    <vehicle id="437" type="RSU" depart="0.00" departPos="18.69" color="red">
        <route edges="-151#1"/>
        <stop lane="-151#1_0" endPos="18.69" until="599.00" parking="1"/>
    </vehicle>
    <vehicle id="438" type="RSU" depart="0.00" departPos="288.37" color="red">
        <route edges="1#7"/>
        <stop lane="1#7_0" endPos="288.37" until="599.00" parking="1"/>
    </vehicle>
    <vehicle id="439" type="RSU" depart="0.00" departPos="106.67" color="red">
        <route edges="34#0"/>
        <stop lane="34#0_0" endPos="106.67" until="599.00" parking="1"/>
    </vehicle>
    <vehicle id="440" type="RSU" depart="0.00" departPos="247.18" color="red">
        <route edges="23#6"/>
        <stop lane="23#6_0" endPos="247.18" until="599.00" parking="1"/>
    </vehicle>
    <vehicle id="441" type="RSU" depart="0.00" departPos="573.93" color="red">
        <route edges="24#2"/>
        <stop lane="24#2_0" endPos="573.93" until="599.00" parking="1"/>
    </vehicle>
    <vehicle id="442" type="RSU" depart="0.00" departPos="165.68" color="red">
        <route edges="35#1"/>
        <stop lane="35#1_0" endPos="165.68" until="599.00" parking="1"/>
    </vehicle>
    <vehicle id="443" type="RSU" depart="0.00" departPos="40.50" color="red">
        <route edges="-56#1"/>
        <stop lane="-56#1_0" endPos="40.50" until="599.00" parking="1"/>
    </vehicle>
    <vehicle id="444" type="RSU" depart="0.00" departPos="43.04" color="red">
        <route edges="94#2"/>
        <stop lane="94#2_0" endPos="43.04" until="599.00" parking="1"/>
    </vehicle>
    <vehicle id="445" type="RSU" depart="0.00" departPos="264.34" color="red">
        <route edges="-88#6"/>
        <stop lane="-88#6_0" endPos="264.34" until="599.00" parking="1"/>
    </vehicle>
    <vehicle id="446" type="RSU" depart="0.00" departPos="155.47" color="red">
        <route edges="-161#0"/>
        <stop lane="-161#0_0" endPos="155.47" until="599.00" parking="1"/>
    </vehicle>
    <vehicle id="447" type="RSU" depart="0.00" departPos="1.17" color="red">
        <route edges="21#5"/>
        <stop lane="21#5_0" endPos="1.17" until="599.00" parking="1"/>
    </vehicle>
    <vehicle id="448" type="RSU" depart="0.00" departPos="205.84" color="red">
        <route edges="484#1"/>
        <stop lane="484#1_0" endPos="205.84" until="599.00" parking="1"/>
    </vehicle>
    <vehicle id="449" type="RSU" depart="0.00" departPos="199.87" color="red">
        <route edges="21#2"/>
        <stop lane="21#2_0" endPos="199.87" until="599.00" parking="1"/>
    </vehicle>
    <vehicle id="450" type="RSU" depart="0.00" departPos="56.34" color="red">
        <route edges="169#8"/>
        <stop lane="169#8_0" endPos="56.34" until="599.00" parking="1"/>
    </vehicle>
    <vehicle id="451" type="RSU" depart="0.00" departPos="23.83" color="red">
        <route edges="-128#1"/>
        <stop lane="-128#1_0" endPos="23.83" until="599.00" parking="1"/>
    </vehicle>
    <vehicle id="452" type="RSU" depart="0.00" departPos="142.75" color="red">
        <route edges="621"/>
        <stop lane="621_0" endPos="142.75" until="599.00" parking="1"/>
    </vehicle>
    <vehicle id="453" type="RSU" depart="0.00" departPos="29.03" color="red">
        <route edges="168#3"/>
        <stop lane="168#3_0" endPos="29.03" until="599.00" parking="1"/>
    </vehicle>
    <vehicle id="454" type="RSU" depart="0.00" departPos="7.97" color="red">
        <route edges="-88#7"/>
        <stop lane="-88#7_0" endPos="7.97" until="599.00" parking="1"/>
    </vehicle>
    <vehicle id="455" type="RSU" depart="0.00" departPos="106.05" color="red">
        <route edges="106#4"/>
        <stop lane="106#4_0" endPos="106.05" until="599.00" parking="1"/>
    </vehicle>
    <vehicle id="456" type="RSU" depart="0.00" departPos="284.12" color="red">
        <route edges="20#3"/>
        <stop lane="20#3_0" endPos="284.12" until="599.00" parking="1"/>
    </vehicle>
    <vehicle id="457" type="RSU" depart="0.00" departPos="255.78" color="red">
        <route edges="28#0"/>
        <stop lane="28#0_0" endPos="255.78" until="599.00" parking="1"/>
    </vehicle>
    <vehicle id="458" type="RSU" depart="0.00" departPos="107.68" color="red">
        <route edges="-36#1"/>
        <stop lane="-36#1_0" endPos="107.68" until="599.00" parking="1"/>
    </vehicle>
    <vehicle id="459" type="RSU" depart="0.00" departPos="124.60" color="red">
        <route edges="1#12"/>
        <stop lane="1#12_0" endPos="124.60" until="599.00" parking="1"/>
    </vehicle>
    <vehicle id="460" type="RSU" depart="0.00" departPos="7.21" color="red">
        <route edges="52#4"/>
        <stop lane="52#4_0" endPos="7.21" until="599.00" parking="1"/>
    </vehicle>
    <vehicle id="461" type="RSU" depart="0.00" departPos="7.06" color="red">
        <route edges="122#3"/>
        <stop lane="122#3_0" endPos="7.06" until="599.00" parking="1"/>
    </vehicle>
    <vehicle id="462" type="RSU" depart="0.00" departPos="216.71" color="red">
        <route edges="-88#1"/>
        <stop lane="-88#1_0" endPos="216.71" until="599.00" parking="1"/>
    </vehicle>
    <vehicle id="463" type="RSU" depart="0.00" departPos="56.33" color="red">
        <route edges="8#6"/>
        <stop lane="8#6_0" endPos="56.33" until="599.00" parking="1"/>
    </vehicle>
    <vehicle id="464" type="RSU" depart="0.00" departPos="736.17" color="red">
        <route edges="21#9"/>
        <stop lane="21#9_0" endPos="736.17" until="599.00" parking="1"/>
    </vehicle>
    <vehicle id="465" type="RSU" depart="0.00" departPos="328.33" color="red">
        <route edges="72#0"/>
        <stop lane="72#0_0" endPos="328.33" until="599.00" parking="1"/>
    </vehicle>
    <vehicle id="466" type="RSU" depart="0.00" departPos="128.59" color="red">
        <route edges="-156#1"/>
        <stop lane="-156#1_0" endPos="128.59" until="599.00" parking="1"/>
    </vehicle>
    <vehicle id="467" type="RSU" depart="0.00" departPos="99.86" color="red">
        <route edges="8#4"/>
        <stop lane="8#4_0" endPos="99.86" until="599.00" parking="1"/>
    </vehicle>
    <vehicle id="468" type="RSU" depart="0.00" departPos="142.81" color="red">
        <route edges="1#1"/>
        <stop lane="1#1_0" endPos="142.81" until="599.00" parking="1"/>
    </vehicle>
    <vehicle id="469" type="RSU" depart="0.00" departPos="138.59" color="red">
        <route edges="-27#0"/>
        <stop lane="-27#0_0" endPos="138.59" until="599.00" parking="1"/>
    </vehicle>
    <vehicle id="470" type="RSU" depart="0.00" departPos="63.92" color="red">
        <route edges="3#4"/>
        <stop lane="3#4_0" endPos="63.92" until="599.00" parking="1"/>
    </vehicle>
    <vehicle id="471" type="RSU" depart="0.00" departPos="3026.00" color="red">
        <route edges="19#0"/>
        <stop lane="19#0_0" endPos="3026.00" until="599.00" parking="1"/>
    </vehicle>
    <vehicle id="472" type="RSU" depart="0.00" departPos="16.29" color="red">
        <route edges="143#4"/>
        <stop lane="143#4_0" endPos="16.29" until="599.00" parking="1"/>
    </vehicle>
    <vehicle id="473" type="RSU" depart="0.00" departPos="72.83" color="red">
        <route edges="52#5"/>
        <stop lane="52#5_0" endPos="72.83" until="599.00" parking="1"/>
    </vehicle>
    <vehicle id="474" type="RSU" depart="0.00" departPos="94.02" color="red">
        <route edges="52#0"/>
        <stop lane="52#0_0" endPos="94.02" until="599.00" parking="1"/>
    </vehicle>
    <vehicle id="475" type="RSU" depart="0.00" departPos="63.63" color="red">
        <route edges="99"/>
        <stop lane="99_0" endPos="63.63" until="599.00" parking="1"/>
    </vehicle>
    <vehicle id="476" type="RSU" depart="0.00" departPos="49.27" color="red">
        <route edges="9#7"/>
        <stop lane="9#7_0" endPos="49.27" until="599.00" parking="1"/>
    </vehicle>
    <vehicle id="477" type="RSU" depart="0.00" departPos="118.52" color="red">
        <route edges="3#2"/>
        <stop lane="3#2_0" endPos="118.52" until="599.00" parking="1"/>
    </vehicle>
    <vehicle id="478" type="RSU" depart="0.00" departPos="67.48" color="red">
        <route edges="97"/>
        <stop lane="97_0" endPos="67.48" until="599.00" parking="1"/>
    </vehicle>
    <vehicle id="479" type="RSU" depart="0.00" departPos="140.48" color="red">
        <route edges="1#3"/>
        <stop lane="1#3_0" endPos="140.48" until="599.00" parking="1"/>
    </vehicle>
    <vehicle id="480" type="RSU" depart="0.00" departPos="5.95" color="red">
        <route edges="36#2"/>
        <stop lane="36#2_0" endPos="5.95" until="599.00" parking="1"/>
    </vehicle>
    <vehicle id="481" type="RSU" depart="0.00" departPos="73.51" color="red">
        <route edges="52#7"/>
        <stop lane="52#7_0" endPos="73.51" until="599.00" parking="1"/>
    </vehicle>
    <vehicle id="482" type="RSU" depart="0.00" departPos="451.66" color="red">
        <route edges="107#0"/>
        <stop lane="107#0_0" endPos="451.66" until="599.00" parking="1"/>
    </vehicle>
    <vehicle id="483" type="RSU" depart="0.00" departPos="430.18" color="red">
        <route edges="7#0"/>
        <stop lane="7#0_0" endPos="430.18" until="599.00" parking="1"/>
    </vehicle>
    <vehicle id="484" type="RSU" depart="0.00" departPos="47.59" color="red">
        <route edges="-14#5"/>
        <stop lane="-14#5_0" endPos="47.59" until="599.00" parking="1"/>
    </vehicle>
    <vehicle id="485" type="RSU" depart="0.00" departPos="55.18" color="red">
        <route edges="-141"/>
        <stop lane="-141_0" endPos="55.18" until="599.00" parking="1"/>
    </vehicle>
    <vehicle id="486" type="RSU" depart="0.00" departPos="198.18" color="red">
        <route edges="56#2"/>
        <stop lane="56#2_0" endPos="198.18" until="599.00" parking="1"/>
    </vehicle>
    <vehicle id="487" type="RSU" depart="0.00" departPos="16.24" color="red">
        <route edges="-27#4"/>
        <stop lane="-27#4_0" endPos="16.24" until="599.00" parking="1"/>
    </vehicle>
    <vehicle id="488" type="RSU" depart="0.00" departPos="26.88" color="red">
        <route edges="20#4"/>
        <stop lane="20#4_0" endPos="26.88" until="599.00" parking="1"/>
    </vehicle>
    <vehicle id="489" type="RSU" depart="0.00" departPos="81.88" color="red">
        <route edges="52#1"/>
        <stop lane="52#1_0" endPos="81.88" until="599.00" parking="1"/>
    </vehicle>
    <vehicle id="490" type="RSU" depart="0.00" departPos="227.91" color="red">
        <route edges="52#3"/>
        <stop lane="52#3_0" endPos="227.91" until="599.00" parking="1"/>
    </vehicle>
    <vehicle id="491" type="RSU" depart="0.00" departPos="275.70" color="red">
        <route edges="-42"/>
        <stop lane="-42_0" endPos="275.70" until="599.00" parking="1"/>
    </vehicle>
    <vehicle id="492" type="RSU" depart="0.00" departPos="250.33" color="red">
        <route edges="169#2"/>
        <stop lane="169#2_0" endPos="250.33" until="599.00" parking="1"/>
    </vehicle>
    <vehicle id="493" type="RSU" depart="0.00" departPos="50.07" color="red">
        <route edges="-103#1"/>
        <stop lane="-103#1_0" endPos="50.07" until="599.00" parking="1"/>
    </vehicle>
    <vehicle id="494" type="RSU" depart="0.00" departPos="102.70" color="red">
        <route edges="34#2"/>
        <stop lane="34#2_0" endPos="102.70" until="599.00" parking="1"/>
    </vehicle>
    <vehicle id="495" type="RSU" depart="0.00" departPos="205.95" color="red">
        <route edges="3#0"/>
        <stop lane="3#0_0" endPos="205.95" until="599.00" parking="1"/>
    </vehicle>
    <vehicle id="496" type="RSU" depart="0.00" departPos="34.20" color="red">
        <route edges="164"/>
        <stop lane="164_0" endPos="34.20" until="599.00" parking="1"/>
    </vehicle>
    <vehicle id="497" type="RSU" depart="0.00" departPos="1164.07" color="red">
        <route edges="24#4"/>
        <stop lane="24#4_0" endPos="1164.07" until="599.00" parking="1"/>
    </vehicle>
    <vehicle id="498" type="RSU" depart="0.00" departPos="184.59" color="red">
        <route edges="168#1"/>
        <stop lane="168#1_0" endPos="184.59" until="599.00" parking="1"/>
    </vehicle>
    <vehicle id="499" type="RSU" depart="0.00" departPos="4.00" color="red">
        <route edges="21#4"/>
        <stop lane="21#4_0" endPos="4.00" until="599.00" parking="1"/>
    </vehicle>
    <vehicle id="500" type="RSU" depart="0.00" departPos="56.84" color="red">
        <route edges="477"/>
        <stop lane="477_0" endPos="56.84" until="599.00" parking="1"/>
    </vehicle>
    <vehicle id="501" type="RSU" depart="0.00" departPos="216.71" color="red">
        <route edges="88#1"/>
        <stop lane="88#1_0" endPos="216.71" until="599.00" parking="1"/>
    </vehicle>
    <vehicle id="502" type="RSU" depart="0.00" departPos="271.10" color="red">
        <route edges="500#0"/>
        <stop lane="500#0_0" endPos="271.10" until="599.00" parking="1"/>
    </vehicle>
    <vehicle id="503" type="RSU" depart="0.00" departPos="11.67" color="red">
        <route edges="169#1"/>
        <stop lane="169#1_0" endPos="11.67" until="599.00" parking="1"/>
    </vehicle>
    <vehicle id="504" type="RSU" depart="0.00" departPos="116.10" color="red">
        <route edges="31#1"/>
        <stop lane="31#1_0" endPos="116.10" until="599.00" parking="1"/>
    </vehicle>
    <vehicle id="505" type="RSU" depart="0.00" departPos="39.80" color="red">
        <route edges="-187#0"/>
        <stop lane="-187#0_0" endPos="39.80" until="599.00" parking="1"/>
    </vehicle>
    <vehicle id="506" type="RSU" depart="0.00" departPos="70.52" color="red">
        <route edges="-140#0"/>
        <stop lane="-140#0_0" endPos="70.52" until="599.00" parking="1"/>
    </vehicle>
    <vehicle id="507" type="RSU" depart="0.00" departPos="10.32" color="red">
        <route edges="479"/>
        <stop lane="479_0" endPos="10.32" until="599.00" parking="1"/>
    </vehicle>
    <vehicle id="508" type="RSU" depart="0.00" departPos="116.32" color="red">
        <route edges="32#1"/>
        <stop lane="32#1_0" endPos="116.32" until="599.00" parking="1"/>
    </vehicle>
    <vehicle id="509" type="RSU" depart="0.00" departPos="18.65" color="red">
        <route edges="190#1"/>
        <stop lane="190#1_0" endPos="18.65" until="599.00" parking="1"/>
    </vehicle>
    <vehicle id="510" type="RSU" depart="0.00" departPos="47.32" color="red">
        <route edges="143#0"/>
        <stop lane="143#0_0" endPos="47.32" until="599.00" parking="1"/>
    </vehicle>
    <vehicle id="511" type="RSU" depart="0.00" departPos="81.92" color="red">
        <route edges="22#8"/>
        <stop lane="22#8_0" endPos="81.92" until="599.00" parking="1"/>
    </vehicle>
    <vehicle id="512" type="RSU" depart="0.00" departPos="125.34" color="red">
        <route edges="-88#3"/>
        <stop lane="-88#3_0" endPos="125.34" until="599.00" parking="1"/>
    </vehicle>
    <vehicle id="513" type="RSU" depart="0.00" departPos="120.74" color="red">
        <route edges="-88#4"/>
        <stop lane="-88#4_0" endPos="120.74" until="599.00" parking="1"/>
    </vehicle>
    <vehicle id="514" type="RSU" depart="0.00" departPos="165.98" color="red">
        <route edges="22#6"/>
        <stop lane="22#6_0" endPos="165.98" until="599.00" parking="1"/>
    </vehicle>
    <vehicle id="515" type="RSU" depart="0.00" departPos="201.56" color="red">
        <route edges="-53"/>
        <stop lane="-53_0" endPos="201.56" until="599.00" parking="1"/>
    </vehicle>
    <vehicle id="516" type="RSU" depart="0.00" departPos="41.46" color="red">
        <route edges="23#10"/>
        <stop lane="23#10_0" endPos="41.46" until="599.00" parking="1"/>
    </vehicle>
    <vehicle id="517" type="RSU" depart="0.00" departPos="72.58" color="red">
        <route edges="139#0"/>
        <stop lane="139#0_0" endPos="72.58" until="599.00" parking="1"/>
    </vehicle>
    <vehicle id="518" type="RSU" depart="0.00" departPos="26.07" color="red">
        <route edges="139#1"/>
        <stop lane="139#1_0" endPos="26.07" until="599.00" parking="1"/>
    </vehicle>
    <vehicle id="519" type="RSU" depart="0.00" departPos="221.91" color="red">
        <route edges="501#1"/>
        <stop lane="501#1_0" endPos="221.91" until="599.00" parking="1"/>
    </vehicle>
    <vehicle id="520" type="RSU" depart="0.00" departPos="261.63" color="red">
        <route edges="21#7"/>
        <stop lane="21#7_0" endPos="261.63" until="599.00" parking="1"/>
    </vehicle>
    <vehicle id="521" type="RSU" depart="0.00" departPos="42.12" color="red">
        <route edges="-128#0"/>
        <stop lane="-128#0_0" endPos="42.12" until="599.00" parking="1"/>
    </vehicle>
    <vehicle id="522" type="RSU" depart="0.00" departPos="744.27" color="red">
        <route edges="22#0"/>
        <stop lane="22#0_0" endPos="744.27" until="599.00" parking="1"/>
    </vehicle>
    <vehicle id="523" type="RSU" depart="0.00" departPos="117.32" color="red">
        <route edges="20#1"/>
        <stop lane="20#1_0" endPos="117.32" until="599.00" parking="1"/>
    </vehicle>
    <vehicle id="524" type="RSU" depart="0.00" departPos="261.01" color="red">
        <route edges="22#2"/>
        <stop lane="22#2_0" endPos="261.01" until="599.00" parking="1"/>
    </vehicle>
    <vehicle id="525" type="RSU" depart="0.00" departPos="116.70" color="red">
        <route edges="33#1"/>
        <stop lane="33#1_0" endPos="116.70" until="599.00" parking="1"/>
    </vehicle>
    <vehicle id="526" type="RSU" depart="0.00" departPos="87.55" color="red">
        <route edges="-156#0"/>
        <stop lane="-156#0_0" endPos="87.55" until="599.00" parking="1"/>
    </vehicle>
    <vehicle id="527" type="RSU" depart="0.00" departPos="187.90" color="red">
        <route edges="172#5"/>
        <stop lane="172#5_0" endPos="187.90" until="599.00" parking="1"/>
    </vehicle>
    <vehicle id="528" type="RSU" depart="0.00" departPos="28.14" color="red">
        <route edges="-128#2"/>
        <stop lane="-128#2_0" endPos="28.14" until="599.00" parking="1"/>
    </vehicle>
    <vehicle id="529" type="RSU" depart="0.00" departPos="8.60" color="red">
        <route edges="-88#0"/>
        <stop lane="-88#0_0" endPos="8.60" until="599.00" parking="1"/>
    </vehicle>
    <vehicle id="530" type="RSU" depart="0.00" departPos="43.39" color="red">
        <route edges="38"/>
        <stop lane="38_0" endPos="43.39" until="599.00" parking="1"/>
    </vehicle>
    <vehicle id="531" type="RSU" depart="0.00" departPos="11.45" color="red">
        <route edges="22#1"/>
        <stop lane="22#1_0" endPos="11.45" until="599.00" parking="1"/>
    </vehicle>
    <vehicle id="532" type="RSU" depart="0.00" departPos="17.31" color="red">
        <route edges="110#0"/>
        <stop lane="110#0_0" endPos="17.31" until="599.00" parking="1"/>
    </vehicle>
    <vehicle id="533" type="RSU" depart="0.00" departPos="75.47" color="red">
        <route edges="8#2"/>
        <stop lane="8#2_0" endPos="75.47" until="599.00" parking="1"/>
    </vehicle>
    <vehicle id="534" type="RSU" depart="0.00" departPos="64.27" color="red">
        <route edges="3#7"/>
        <stop lane="3#7_0" endPos="64.27" until="599.00" parking="1"/>
    </vehicle>
    <vehicle id="535" type="RSU" depart="0.00" departPos="12.50" color="red">
        <route edges="170#0"/>
        <stop lane="170#0_0" endPos="12.50" until="599.00" parking="1"/>
    </vehicle>
    <vehicle id="536" type="RSU" depart="0.00" departPos="126.87" color="red">
        <route edges="8#1"/>
        <stop lane="8#1_0" endPos="126.87" until="599.00" parking="1"/>
    </vehicle>
    <vehicle id="537" type="RSU" depart="0.00" departPos="42.83" color="red">
        <route edges="198"/>
        <stop lane="198_0" endPos="42.83" until="599.00" parking="1"/>
    </vehicle>
    <vehicle id="538" type="RSU" depart="0.00" departPos="28.14" color="red">
        <route edges="128#2"/>
        <stop lane="128#2_0" endPos="28.14" until="599.00" parking="1"/>
    </vehicle>
    <vehicle id="539" type="RSU" depart="0.00" departPos="3745.07" color="red">
        <route edges="24#1"/>
        <stop lane="24#1_0" endPos="3745.07" until="599.00" parking="1"/>
    </vehicle>
    <vehicle id="540" type="RSU" depart="0.00" departPos="43.04" color="red">
        <route edges="-94#2"/>
        <stop lane="-94#2_0" endPos="43.04" until="599.00" parking="1"/>
    </vehicle>
    <vehicle id="541" type="RSU" depart="0.00" departPos="154.58" color="red">
        <route edges="3#5"/>
        <stop lane="3#5_0" endPos="154.58" until="599.00" parking="1"/>
    </vehicle>
    <vehicle id="542" type="RSU" depart="0.00" departPos="31.99" color="red">
        <route edges="169#5"/>
        <stop lane="169#5_0" endPos="31.99" until="599.00" parking="1"/>
    </vehicle>
    <vehicle id="543" type="RSU" depart="0.00" departPos="36.61" color="red">
        <route edges="165"/>
        <stop lane="165_0" endPos="36.61" until="599.00" parking="1"/>
    </vehicle>
    <vehicle id="544" type="RSU" depart="0.00" departPos="122.96" color="red">
        <route edges="-103#0"/>
        <stop lane="-103#0_0" endPos="122.96" until="599.00" parking="1"/>
    </vehicle>
    <vehicle id="545" type="RSU" depart="0.00" departPos="203.34" color="red">
        <route edges="2"/>
        <stop lane="2_0" endPos="203.34" until="599.00" parking="1"/>
    </vehicle>
    <vehicle id="546" type="RSU" depart="0.00" departPos="5.87" color="red">
        <route edges="-48#5"/>
        <stop lane="-48#5_0" endPos="5.87" until="599.00" parking="1"/>
    </vehicle>
    <vehicle id="547" type="RSU" depart="0.00" departPos="10.56" color="red">
        <route edges="166#2"/>