<?xml version="1.0" encoding="UTF-8"?>

<!-- generated on 05/17/18 15:00:15 by SUMO netconvert Version 0.24.0
<?xml version="1.0" encoding="UTF-8"?>

<configuration xmlns:xsi="http://www.w3.org/2001/XMLSchema-instance" xsi:noNamespaceSchemaLocation="http://sumo.dlr.de/xsd/netconvertConfiguration.xsd">

    <input>
        <type-files value="F:\Tools\sumo-0.24.0/data/typemap/osmNetconvert.typ.xml"/>
        <osm-files value="target.osm"/>
    </input>

    <output>
        <output-file value="input_net.net.xml"/>
    </output>

    <projection>
        <proj.utm value="true"/>
    </projection>

    <processing>
        <no-internal-links value="true"/>
    </processing>

</configuration>
-->

<net version="0.13" xmlns:xsi="http://www.w3.org/2001/XMLSchema-instance" xsi:noNamespaceSchemaLocation="http://sumo.dlr.de/xsd/net_file.xsd">

    <location netOffset="-741066.96,-2547751.91" convBoundary="0.00,0.00,6740.02,10513.70" origBoundary="113.342934,23.019775,113.418784,23.115185" projParameter="+proj=utm +zone=49 +ellps=WGS84 +datum=WGS84 +units=m +no_defs"/>

    <type id="highway.bridleway" priority="1" numLanes="1" speed="2.78" allow="pedestrian" oneway="1" width="2.00"/>
    <type id="highway.bus_guideway" priority="1" numLanes="1" speed="8.33" allow="bus" oneway="1"/>
    <type id="highway.cycleway" priority="1" numLanes="1" speed="5.56" allow="bicycle" oneway="0" width="1.00"/>
    <type id="highway.footway" priority="1" numLanes="1" speed="8.33" allow="pedestrian" oneway="1" width="2.00"/>
    <type id="highway.ford" priority="1" numLanes="1" speed="2.78" allow="army" oneway="0"/>
    <type id="highway.living_street" priority="3" numLanes="1" speed="2.78" disallow="tram rail_urban rail rail_electric ship" oneway="0"/>
    <type id="highway.motorway" priority="13" numLanes="2" speed="44.44" allow="private emergency authority army vip passenger hov taxi bus coach delivery truck trailer motorcycle evehicle custom1 custom2" oneway="1"/>
    <type id="highway.motorway_link" priority="12" numLanes="1" speed="22.22" allow="private emergency authority army vip passenger hov taxi bus coach delivery truck trailer motorcycle evehicle custom1 custom2" oneway="1"/>
    <type id="highway.path" priority="1" numLanes="1" speed="2.78" allow="bicycle pedestrian" oneway="1" width="2.00"/>
    <type id="highway.pedestrian" priority="1" numLanes="1" speed="8.33" allow="pedestrian" oneway="1" width="2.00"/>
    <type id="highway.primary" priority="9" numLanes="2" speed="27.78" disallow="tram rail_urban rail rail_electric ship" oneway="0"/>
    <type id="highway.primary_link" priority="8" numLanes="1" speed="22.22" disallow="tram rail_urban rail rail_electric ship" oneway="0"/>
    <type id="highway.raceway" priority="14" numLanes="2" speed="83.33" allow="vip" oneway="0"/>
    <type id="highway.residential" priority="4" numLanes="1" speed="13.89" disallow="tram rail_urban rail rail_electric ship" oneway="0"/>
    <type id="highway.secondary" priority="7" numLanes="2" speed="27.78" disallow="tram rail_urban rail rail_electric ship" oneway="0"/>
    <type id="highway.secondary_link" priority="6" numLanes="1" speed="22.22" disallow="tram rail_urban rail rail_electric ship" oneway="0"/>
    <type id="highway.service" priority="2" numLanes="1" speed="5.56" allow="delivery bicycle pedestrian" oneway="0"/>
    <type id="highway.services" priority="1" numLanes="1" speed="8.33" disallow="tram rail_urban rail rail_electric ship" oneway="0"/>
    <type id="highway.stairs" priority="1" numLanes="1" speed="1.39" allow="pedestrian" oneway="1" width="2.00"/>
    <type id="highway.step" priority="1" numLanes="1" speed="1.39" allow="pedestrian" oneway="1" width="2.00"/>
    <type id="highway.steps" priority="1" numLanes="1" speed="1.39" allow="pedestrian" oneway="1" width="2.00"/>
    <type id="highway.tertiary" priority="6" numLanes="1" speed="22.22" disallow="tram rail_urban rail rail_electric ship" oneway="0"/>
    <type id="highway.tertiary_link" priority="5" numLanes="1" speed="22.22" disallow="tram rail_urban rail rail_electric ship" oneway="0"/>
    <type id="highway.track" priority="1" numLanes="1" speed="5.56" disallow="tram rail_urban rail rail_electric ship" oneway="0"/>
    <type id="highway.trunk" priority="11" numLanes="2" speed="27.78" disallow="tram rail_urban rail rail_electric bicycle pedestrian ship" oneway="0"/>
    <type id="highway.trunk_link" priority="10" numLanes="1" speed="22.22" disallow="tram rail_urban rail rail_electric bicycle pedestrian ship" oneway="0"/>
    <type id="highway.unclassified" priority="5" numLanes="1" speed="13.89" disallow="tram rail_urban rail rail_electric ship" oneway="0"/>
    <type id="highway.unsurfaced" priority="1" numLanes="1" speed="8.33" disallow="tram rail_urban rail rail_electric ship" oneway="0"/>
    <type id="railway.light_rail" priority="15" numLanes="1" speed="27.78" allow="rail_urban" oneway="1"/>
    <type id="railway.preserved" priority="15" numLanes="1" speed="27.78" allow="rail" oneway="1"/>
    <type id="railway.rail" priority="15" numLanes="1" speed="83.33" allow="rail rail_electric" oneway="1"/>
    <type id="railway.subway" priority="15" numLanes="1" speed="27.78" allow="rail_urban" oneway="1"/>
    <type id="railway.tram" priority="15" numLanes="1" speed="13.89" allow="tram" oneway="1"/>

    <edge id="-100/0" from="2228" to="2224" priority="2" type="highway.service" shape="4328.00,4942.96 4278.71,4901.18 4267.80,4876.68 4253.76,4875.16 4243.84,4870.03 4244.29,4854.00 4212.15,4854.08 4212.94,4843.53 4179.18,4841.83 4166.88,4834.69 4170.92,4807.01 4187.92,4793.03 4221.67,4785.16 4250.28,4789.75">
        <lane id="-100/0_0" index="0" allow="delivery bicycle pedestrian" speed="5.56" length="337.12" shape="4323.15,4941.02 4277.36,4902.20 4266.68,4878.22 4253.28,4876.76 4242.16,4871.02 4242.59,4855.65 4210.37,4855.73 4211.17,4845.09 4178.70,4843.45 4165.09,4835.56 4169.38,4806.14 4187.16,4791.51 4221.61,4783.48 4250.54,4788.12"/>
    </edge>
    <edge id="-100/1" from="4319" to="2228" priority="2" type="highway.service">
        <lane id="-100/1_0" index="0" allow="delivery bicycle pedestrian" speed="5.56" length="28.28" shape="4344.70,4959.51 4330.66,4947.43"/>
    </edge>
    <edge id="-100/2" from="2235" to="4319" priority="2" type="highway.service" shape="4144.44,5441.37 4231.73,5328.98 4328.75,5211.06 4426.96,5112.36 4435.19,5082.29 4437.59,5057.31 4429.38,5030.63 4413.42,5010.62 4399.31,5000.97 4376.81,4983.81 4349.44,4961.41">
        <lane id="-100/2_0" index="0" allow="delivery bicycle pedestrian" speed="5.56" length="624.79" shape="4143.14,5440.36 4230.43,5327.97 4327.48,5210.01 4425.49,5111.50 4433.59,5081.85 4435.92,5057.48 4427.89,5031.41 4412.28,5011.84 4398.38,5002.33 4375.81,4985.12 4352.20,4965.80"/>
    </edge>
    <edge id="-103/0" from="4660" to="2232" priority="2" type="highway.service" shape="3847.55,5222.62 3854.85,5184.09 3875.72,5135.94 3917.60,5089.55 3988.51,5032.27 4037.14,4984.56">
        <lane id="-103/0_0" index="0" allow="delivery bicycle pedestrian" speed="5.56" length="313.47" shape="3846.51,5219.28 3853.26,5183.60 3874.31,5135.03 3916.38,5088.45 3987.47,5030.99 4032.37,4986.93"/>
    </edge>
    <edge id="-103/1" from="2251" to="4660" priority="2" type="highway.service" shape="4125.56,5613.59 4110.31,5577.29 4074.58,5571.80 4033.88,5571.68 3970.46,5591.28 3933.22,5542.29 3893.56,5479.20 3871.47,5426.27 3857.80,5377.58 3855.95,5370.99 3845.49,5311.29 3847.55,5222.62">
        <lane id="-103/1_0" index="0" allow="delivery bicycle pedestrian" speed="5.56" length="582.73" shape="4124.04,5614.23 4109.15,5578.78 4074.33,5573.43 4034.13,5573.33 3969.85,5593.20 3931.90,5543.28 3892.16,5480.08 3869.95,5426.90 3856.22,5378.03 3854.37,5371.44 3843.84,5311.41 3845.85,5225.05"/>
    </edge>
    <edge id="-104/0" from="8823" to="2872" priority="2" type="highway.service" shape="2706.51,5195.58 2722.65,5227.89 2821.74,5420.83 2884.83,5514.67 2960.16,5594.37 2987.24,5616.38 3013.53,5633.79 3041.53,5648.33 3080.53,5666.69 3118.51,5680.04">
        <lane id="-104/0_0" index="0" allow="delivery bicycle pedestrian" speed="5.56" length="657.10" shape="2710.08,5199.03 2724.13,5227.16 2823.21,5420.08 2886.20,5513.75 2961.36,5593.23 2988.28,5615.10 3014.44,5632.42 3042.29,5646.87 3081.23,5665.19 3119.05,5678.48"/>
    </edge>
    <edge id="-104/1" from="8831" to="8823" priority="2" type="highway.service" shape="2696.01,5086.56 2693.21,5101.32 2691.77,5115.09 2691.62,5130.00 2691.85,5141.73 2693.42,5156.85 2696.20,5170.92 2700.67,5184.02 2706.51,5195.58">
        <lane id="-104/1_0" index="0" allow="delivery bicycle pedestrian" speed="5.56" length="111.85" shape="2696.83,5091.07 2694.83,5101.62 2693.42,5115.26 2693.27,5130.01 2693.50,5141.70 2695.06,5156.68 2697.82,5170.60 2702.23,5183.49 2705.81,5190.55"/>
    </edge>
    <edge id="-104/2" from="8839" to="8831" priority="2" type="highway.service">
        <lane id="-104/2_0" index="0" allow="delivery bicycle pedestrian" speed="5.56" length="20.48" shape="2701.32,5069.91 2698.77,5081.63"/>
    </edge>
    <edge id="-104/3" from="9209" to="8839" priority="2" type="highway.service" shape="2953.39,4914.52 2945.40,4909.72 2934.66,4905.10 2921.75,4901.06 2910.28,4898.51 2896.96,4896.92 2884.74,4896.90 2870.10,4898.60 2856.03,4901.49 2845.24,4904.50 2834.03,4909.01 2821.49,4916.35 2809.28,4925.66 2740.06,4994.71 2729.10,5007.99 2719.54,5021.69 2712.25,5034.96 2706.40,5047.79 2700.37,5066.54">
        <lane id="-104/3_0" index="0" allow="delivery bicycle pedestrian" speed="5.56" length="334.83" shape="2952.54,4915.93 2944.55,4911.14 2934.01,4906.62 2921.26,4902.64 2909.92,4900.12 2896.76,4898.56 2884.73,4898.55 2870.29,4900.24 2856.36,4903.10 2845.69,4906.09 2834.64,4910.54 2822.32,4917.77 2810.28,4926.98 2741.23,4995.87 2730.38,5009.04 2720.89,5022.64 2713.70,5035.75 2707.90,5048.48 2704.71,5058.42"/>
    </edge>
    <edge id="-108" from="2859" to="2253" priority="2" type="highway.service" shape="3044.47,4937.77 3041.45,4944.47 3039.67,4952.20 3039.03,4959.41 3039.98,5085.12 3040.96,5097.61 3046.76,5155.02 3048.29,5166.41 3050.20,5176.27 3052.21,5183.58 3054.79,5190.90">
        <lane id="-108_0" index="0" allow="delivery bicycle pedestrian" speed="5.56" length="255.33" shape="3045.75,4938.96 3043.02,4945.00 3041.27,4952.57 3040.67,4959.56 3041.63,5085.10 3042.60,5097.48 3048.40,5154.85 3049.93,5166.19 3051.82,5175.95 3051.96,5176.45"/>
    </edge>
    <edge id="-109/0" from="2287" to="2892" priority="2" type="highway.service" shape="3213.92,4733.84 3140.58,4805.22 3105.35,4874.17">
        <lane id="-109/0_0" index="0" allow="delivery bicycle pedestrian" speed="5.56" length="179.77" shape="3194.27,4755.27 3141.92,4806.21 3107.04,4874.50"/>
    </edge>
    <edge id="-109/1" from="1490" to="2287" priority="2" type="highway.service">
        <lane id="-109/1_0" index="0" allow="delivery bicycle pedestrian" speed="5.56" length="68.68" shape="3260.26,4691.53 3218.70,4731.53"/>
    </edge>
    <edge id="-109/2" from="2282" to="1490" priority="2" type="highway.service" shape="3366.74,4587.14 3333.81,4617.89 3263.40,4686.22">
        <lane id="-109/2_0" index="0" allow="delivery bicycle pedestrian" speed="5.56" length="143.17" shape="3364.31,4591.67 3334.94,4619.10 3269.12,4682.97"/>
    </edge>
    <edge id="-110/0" from="3216" to="3221" priority="2" type="highway.service">
        <lane id="-110/0_0" index="0" allow="delivery bicycle pedestrian" speed="5.56" length="31.88" shape="3407.31,4503.41 3403.19,4525.50"/>
    </edge>
    <edge id="-110/1" from="2285" to="3216" priority="2" type="highway.service">
        <lane id="-110/1_0" index="0" allow="delivery bicycle pedestrian" speed="5.56" length="80.29" shape="3422.15,4425.29 3409.07,4494.04"/>
    </edge>
    <edge id="-111/0" from="3311" to="893" priority="2" type="highway.service">
        <lane id="-111/0_0" index="0" allow="delivery bicycle pedestrian" speed="5.56" length="32.16" shape="3208.98,4992.32 3194.25,5009.52"/>
    </edge>
    <edge id="-111/1" from="6363" to="3311" priority="2" type="highway.service" shape="3253.62,4979.39 3240.18,4978.89 3210.68,4987.79">
        <lane id="-111/1_0" index="0" allow="delivery bicycle pedestrian" speed="5.56" length="44.26" shape="3249.73,4980.89 3240.40,4980.55 3214.43,4988.39"/>
    </edge>
    <edge id="-111/2" from="3309" to="6363" priority="2" type="highway.service">
        <lane id="-111/2_0" index="0" allow="delivery bicycle pedestrian" speed="5.56" length="46.04" shape="3294.64,4982.61 3259.58,4981.27"/>
    </edge>
    <edge id="-112/0" from="8950" to="2764" priority="4" type="highway.residential" shape="3383.87,4802.86 3383.77,4804.04 3355.30,5113.67">
        <lane id="-112/0_0" index="0" disallow="tram rail_urban rail rail_electric ship" speed="13.89" length="312.12" shape="3385.27,4805.78 3357.48,5107.98"/>
    </edge>
    <edge id="-112/1" from="8908" to="8950" priority="4" type="highway.residential">
        <lane id="-112/1_0" index="0" disallow="tram rail_urban rail rail_electric ship" speed="13.89" length="6.84" shape="3385.88,4798.54 3385.70,4800.78"/>
    </edge>
    <edge id="-112/2" from="8872" to="8908" priority="4" type="highway.residential">
        <lane id="-112/2_0" index="0" disallow="tram rail_urban rail rail_electric ship" speed="13.89" length="3.89" shape="3386.25,4794.15 3386.23,4794.35"/>
    </edge>
    <edge id="-112/3" from="1493" to="8872" priority="4" type="highway.residential" shape="3395.01,4736.66 3391.03,4758.23 3384.75,4792.18">
        <lane id="-112/3_0" index="0" disallow="tram rail_urban rail rail_electric ship" speed="13.89" length="56.46" shape="3395.75,4741.74 3392.65,4758.53 3387.33,4787.30"/>
    </edge>
    <edge id="-113/0" from="3280" to="2287" priority="2" type="highway.service" shape="3320.33,4798.61 3283.48,4794.44 3213.92,4733.84">
        <lane id="-113/0_0" index="0" allow="delivery bicycle pedestrian" speed="5.56" length="129.35" shape="3315.42,4799.72 3282.79,4796.03 3216.64,4738.41"/>
    </edge>
    <edge id="-113/1" from="3282" to="3280" priority="2" type="highway.service">
        <lane id="-113/1_0" index="0" allow="delivery bicycle pedestrian" speed="5.56" length="19.75" shape="3339.78,4802.47 3324.86,4800.79"/>
    </edge>
    <edge id="-114/0" from="2292" to="2290" priority="2" type="highway.service">
        <lane id="-114/0_0" index="0" allow="delivery bicycle pedestrian" speed="5.56" length="47.17" shape="3300.53,4511.79 3274.69,4545.35"/>
    </edge>
    <edge id="-114/1" from="3211" to="2292" priority="2" type="highway.service">
        <lane id="-114/1_0" index="0" allow="delivery bicycle pedestrian" speed="5.56" length="102.40" shape="3363.98,4425.31 3306.21,4504.22"/>
    </edge>
    <edge id="-115" from="2283" to="2292" priority="2" type="highway.service">
        <lane id="-115_0" index="0" allow="delivery bicycle pedestrian" speed="5.56" length="67.50" shape="3349.67,4547.28 3304.88,4511.27"/>
    </edge>
    <edge id="-116/0" from="3228" to="3227" priority="2" type="highway.service">
        <lane id="-116/0_0" index="0" allow="delivery bicycle pedestrian" speed="5.56" length="67.76" shape="3482.27,4571.69 3423.73,4566.11"/>
    </edge>
    <edge id="-116/1" from="2293" to="3228" priority="2" type="highway.service">
        <lane id="-116/1_0" index="0" allow="delivery bicycle pedestrian" speed="5.56" length="71.78" shape="3553.74,4578.50 3491.80,4572.60"/>
    </edge>
    <edge id="-117/0" from="2293" to="1517" priority="4" type="highway.residential">
        <lane id="-117/0_0" index="0" disallow="tram rail_urban rail rail_electric ship" speed="13.89" length="181.80" shape="3559.82,4582.20 3543.18,4753.39"/>
    </edge>
    <edge id="-117/1" from="1058" to="2293" priority="4" type="highway.residential">
        <lane id="-117/1_0" index="0" disallow="tram rail_urban rail rail_electric ship" speed="13.89" length="129.34" shape="3573.32,4453.64 3560.77,4572.79"/>
    </edge>
    <edge id="-119" from="2301" to="2297" priority="2" type="highway.service" shape="3513.64,4006.94 3503.60,4071.91 3520.66,4120.88 3526.04,4161.99 3525.71,4216.12 3516.87,4252.07 3502.76,4279.89 3480.28,4303.97 3480.94,4336.34 3486.91,4369.16 3499.37,4404.23">
        <lane id="-119_0" index="0" allow="delivery bicycle pedestrian" speed="5.56" length="417.29" shape="3514.50,4012.19 3505.29,4071.75 3522.27,4120.50 3527.67,4161.77 3527.36,4216.32 3518.42,4252.65 3504.12,4280.85 3481.94,4304.60 3482.59,4336.31 3488.54,4368.86 3500.32,4401.96"/>
    </edge>
    <edge id="-120/0" from="2305" to="1263" priority="2" type="highway.service" shape="3744.34,4272.16 3707.27,4257.84 3665.19,4239.91 3644.64,4219.63 3628.52,4195.60 3612.76,4150.75 3608.64,4074.14 3582.65,4004.98">
        <lane id="-120/0_0" index="0" allow="delivery bicycle pedestrian" speed="5.56" length="341.43" shape="3738.22,4271.56 3706.67,4259.38 3664.25,4241.31 3643.36,4220.69 3627.03,4196.35 3611.13,4151.07 3607.01,4074.48 3582.97,4010.51"/>
    </edge>
    <edge id="-120/1" from="1231" to="2305" priority="2" type="highway.service" shape="3790.25,4071.07 3788.32,4144.86 3780.13,4207.63 3760.15,4248.29 3744.34,4272.16">
        <lane id="-120/1_0" index="0" allow="delivery bicycle pedestrian" speed="5.56" length="211.05" shape="3791.69,4079.08 3789.96,4144.91 3781.73,4208.11 3761.63,4249.01 3747.99,4269.64"/>
    </edge>
    <edge id="-121/0" from="9318" to="2305" priority="2" type="highway.service" shape="3694.99,4359.38 3715.04,4308.90 3744.34,4272.16">
        <lane id="-121/0_0" index="0" allow="delivery bicycle pedestrian" speed="5.56" length="101.31" shape="3695.12,4354.58 3713.60,4308.06 3739.36,4275.77"/>
    </edge>
    <edge id="-121/1" from="9310" to="9318" priority="2" type="highway.service" shape="3685.21,4373.97 3693.24,4363.77 3694.99,4359.38">
        <lane id="-121/1_0" index="0" allow="delivery bicycle pedestrian" speed="5.56" length="17.69" shape="3686.14,4370.13 3691.47,4363.35"/>
    </edge>
    <edge id="-121/2" from="2297" to="9310" priority="2" type="highway.service" shape="3499.37,4404.23 3530.78,4410.89 3579.82,4416.02 3624.28,4410.22 3649.73,4401.34 3678.34,4382.69 3685.21,4373.97">
        <lane id="-121/2_0" index="0" allow="delivery bicycle pedestrian" speed="5.56" length="198.46" shape="3501.49,4402.99 3531.12,4409.28 3579.79,4414.36 3623.90,4408.61 3649.00,4399.85 3677.22,4381.45 3679.87,4378.09"/>
    </edge>
    <edge id="-122/0" from="1015" to="6443" priority="4" type="highway.residential" shape="3067.54,3653.52 3053.88,3672.12 3050.12,3686.59 3072.31,3717.80 3078.87,3735.20">
        <lane id="-122/0_0" index="0" disallow="tram rail_urban rail rail_electric ship" speed="13.89" length="94.92" shape="3066.61,3657.57 3055.40,3672.84 3051.91,3686.26 3073.78,3717.02 3080.41,3734.62"/>
    </edge>
    <edge id="-122/1" from="2312" to="1015" priority="4" type="highway.residential" shape="3202.98,3619.14 3180.24,3601.43 3157.43,3604.86 3107.37,3622.79 3067.54,3653.52">
        <lane id="-122/1_0" index="0" disallow="tram rail_urban rail rail_electric ship" speed="13.89" length="155.37" shape="3201.96,3620.44 3179.78,3603.17 3157.83,3606.46 3108.17,3624.25 3072.45,3651.81"/>
    </edge>
    <edge id="-123" from="2388" to="2313" priority="5" type="highway.unclassified">
        <lane id="-123_0" index="0" disallow="tram rail_urban rail rail_electric ship" speed="13.89" length="117.09" shape="2417.48,4590.14 2339.90,4513.53"/>
    </edge>
    <edge id="-124" from="6854" to="7788" priority="6" type="highway.tertiary">
        <lane id="-124_0" index="0" disallow="tram rail_urban rail rail_electric ship" speed="22.22" length="20.09" shape="2511.57,4981.90 2504.43,4989.08"/>
    </edge>
    <edge id="-125/0" from="7076" to="7048" priority="4" type="highway.residential">
        <lane id="-125/0_0" index="0" disallow="tram rail_urban rail rail_electric ship" speed="13.89" length="137.30" shape="2757.94,4916.06 2665.66,4827.83"/>
    </edge>
    <edge id="-125/1" from="7046" to="7076" priority="4" type="highway.residential">
        <lane id="-125/1_0" index="0" disallow="tram rail_urban rail rail_electric ship" speed="13.89" length="7.56" shape="2764.76,4922.71 2764.62,4922.57"/>
    </edge>
    <edge id="-127" from="2451" to="2318" priority="6" type="highway.tertiary" shape="2827.98,4656.26 2943.11,4529.87 3001.77,4473.96">
        <lane id="-127_0" index="0" disallow="tram rail_urban rail rail_electric ship" speed="22.22" length="252.00" shape="2830.02,4651.56 2941.89,4528.76 2994.88,4478.25"/>
    </edge>
    <edge id="-13/0" from="1100" to="1239" priority="5" type="highway.unclassified" shape="4046.16,3474.60 3955.06,3474.93 3908.79,3474.07 3877.29,3468.35 3849.46,3456.68 3830.22,3442.94 3814.47,3425.00 3798.58,3400.36 3792.53,3379.80 3788.57,3351.06 3791.78,3234.40 3792.48,3225.39">
        <lane id="-13/0_0" index="0" disallow="tram rail_urban rail rail_electric ship" speed="13.89" length="452.59" shape="4035.93,3476.29 3955.07,3476.58 3908.76,3475.72 3876.81,3469.94 3848.66,3458.13 3829.10,3444.17 3813.23,3426.09 3797.06,3401.06 3790.95,3380.27 3786.94,3351.29 3790.13,3234.35 3790.64,3227.87"/>
    </edge>
    <edge id="-13/1" from="1367" to="1100" priority="5" type="highway.unclassified" shape="4150.30,3611.92 4135.13,3565.04 4118.03,3534.69 4106.67,3516.79 4091.09,3501.05 4071.07,3484.04 4046.16,3474.60">
        <lane id="-13/1_0" index="0" disallow="tram rail_urban rail rail_electric ship" speed="13.89" length="180.37" shape="4147.24,3607.82 4133.61,3565.70 4116.60,3535.50 4105.37,3517.82 4089.92,3502.21 4070.22,3485.48 4048.79,3477.36"/>
    </edge>
    <edge id="-13/10" from="1232" to="1196" priority="5" type="highway.unclassified" shape="3454.15,3252.60 3438.46,3303.85 3432.10,3346.30 3431.44,3368.57 3430.26,3402.29 3427.41,3430.58 3420.10,3456.46 3409.93,3480.64 3341.57,3591.69">
        <lane id="-13/10_0" index="0" disallow="tram rail_urban rail rail_electric ship" speed="13.89" length="364.51" shape="3454.58,3256.84 3440.03,3304.33 3433.74,3346.55 3433.09,3368.62 3431.91,3402.35 3429.05,3430.74 3421.69,3456.91 3411.45,3481.28 3345.75,3588.05"/>
    </edge>
    <edge id="-13/11" from="1236" to="1232" priority="5" type="highway.unclassified" shape="3779.11,3211.68 3766.46,3211.28 3494.38,3207.26 3479.86,3209.27 3472.48,3216.50 3454.15,3252.60">
        <lane id="-13/11_0" index="0" disallow="tram rail_urban rail rail_electric ship" speed="13.89" length="350.24" shape="3776.54,3213.25 3766.40,3212.93 3494.35,3208.91 3480.63,3210.83 3473.83,3217.49 3457.95,3248.76"/>
    </edge>
    <edge id="-13/2" from="2188" to="1367" priority="5" type="highway.unclassified" shape="4133.26,3768.92 4139.32,3746.68 4148.64,3714.57 4153.22,3669.79 4152.68,3635.34 4150.30,3611.92">
        <lane id="-13/2_0" index="0" disallow="tram rail_urban rail rail_electric ship" speed="13.89" length="159.49" shape="4133.25,3762.69 4137.72,3746.25 4147.01,3714.25 4151.57,3669.63 4151.03,3635.36 4149.21,3617.47"/>
    </edge>
    <edge id="-13/3" from="1368" to="2188" priority="5" type="highway.unclassified" shape="4016.52,3889.60 4055.83,3873.29 4096.45,3844.97 4112.18,3824.45 4122.96,3804.94 4127.61,3789.69 4133.26,3768.92">
        <lane id="-13/3_0" index="0" disallow="tram rail_urban rail rail_electric ship" speed="13.89" length="177.69" shape="4020.80,3886.04 4055.04,3871.83 4095.30,3843.76 4110.88,3823.45 4121.43,3804.29 4126.03,3789.21 4130.04,3774.46"/>
    </edge>
    <edge id="-13/4" from="1231" to="1368" priority="5" type="highway.unclassified" shape="3790.25,4071.07 3804.44,4044.16 3822.68,4005.08 3861.32,3962.51 3898.53,3940.69 3979.43,3903.76 4016.52,3889.60">
        <lane id="-13/4_0" index="0" disallow="tram rail_urban rail rail_electric ship" speed="13.89" length="302.81" shape="3792.16,4063.91 3802.98,4043.39 3821.29,4004.15 3860.27,3961.21 3897.69,3939.27 3978.75,3902.26 4011.87,3889.61"/>
    </edge>
    <edge id="-13/5" from="1263" to="1231" priority="5" type="highway.unclassified" shape="3582.65,4004.98 3618.97,3997.37 3649.35,3987.63 3668.02,3983.75 3699.60,3987.05 3721.00,3994.01 3746.02,4007.57 3759.56,4020.51 3774.50,4045.28 3790.25,4071.07">
        <lane id="-13/5_0" index="0" disallow="tram rail_urban rail rail_electric ship" speed="13.89" length="248.67" shape="3587.49,4002.28 3618.63,3995.76 3648.85,3986.06 3667.93,3982.08 3699.95,3985.42 3721.65,3992.49 3747.00,4006.23 3760.86,4019.47 3775.91,4044.42 3787.90,4064.05"/>
    </edge>
    <edge id="-13/6" from="2301" to="1263" priority="5" type="highway.unclassified" shape="3513.64,4006.94 3528.93,4007.94 3553.95,4008.21 3582.65,4004.98">
        <lane id="-13/6_0" index="0" disallow="tram rail_urban rail rail_electric ship" speed="13.89" length="69.23" shape="3518.21,4005.59 3529.04,4006.29 3553.97,4006.56 3578.46,4003.79"/>
    </edge>
    <edge id="-13/7" from="1208" to="2301" priority="5" type="highway.unclassified" shape="3386.70,3964.26 3410.81,3977.65 3446.57,3994.02 3475.87,4002.15 3505.83,4006.44 3513.64,4006.94">
        <lane id="-13/7_0" index="0" disallow="tram rail_urban rail rail_electric ship" speed="13.89" length="135.40" shape="3390.75,3964.63 3411.61,3976.21 3447.26,3992.52 3476.31,4000.56 3506.06,4004.81 3508.70,4004.98"/>
    </edge>
    <edge id="-13/8" from="9467" to="1208" priority="5" type="highway.unclassified" shape="3344.34,3838.87 3345.77,3846.84 3345.58,3861.63 3345.38,3878.63 3345.02,3909.80 3351.35,3929.84 3364.05,3946.70 3386.70,3964.26">
        <lane id="-13/8_0" index="0" disallow="tram rail_urban rail rail_electric ship" speed="13.89" length="141.85" shape="3346.43,3841.17 3347.42,3846.70 3347.23,3861.65 3347.03,3878.65 3346.67,3909.56 3352.83,3929.07 3365.24,3945.53 3383.31,3959.55"/>
    </edge>
    <edge id="-13/9" from="1196" to="9467" priority="5" type="highway.unclassified" shape="3341.57,3591.69 3330.24,3622.19 3321.36,3650.67 3311.21,3684.42 3307.64,3724.40 3313.94,3761.25 3324.04,3787.81 3333.93,3805.41 3342.19,3826.93 3344.34,3838.87">
        <lane id="-13/9_0" index="0" disallow="tram rail_urban rail rail_electric ship" speed="13.89" length="258.92" shape="3341.81,3595.81 3331.79,3622.76 3322.93,3651.16 3312.84,3684.74 3309.30,3724.33 3315.54,3760.81 3325.58,3787.22 3335.36,3804.60 3343.78,3826.48 3345.54,3836.25"/>
    </edge>
    <edge id="-130/0" from="8078" to="2322" priority="6" type="highway.tertiary">
        <lane id="-130/0_0" index="0" disallow="tram rail_urban rail rail_electric ship" speed="22.22" length="7.39" shape="2774.57,4256.69 2774.71,4256.54"/>
    </edge>
    <edge id="-130/1" from="2323" to="8078" priority="6" type="highway.tertiary" shape="2601.47,4433.56 2622.87,4412.17 2657.37,4378.75 2684.67,4352.54 2714.61,4322.63 2733.45,4302.70 2753.05,4281.62 2773.96,4259.75">
        <lane id="-130/1_0" index="0" disallow="tram rail_urban rail rail_electric ship" speed="22.22" length="244.92" shape="2603.75,4428.95 2621.70,4411.00 2656.22,4377.56 2683.52,4351.35 2713.44,4321.46 2732.25,4301.56 2751.84,4280.50 2769.47,4262.06"/>
    </edge>
    <edge id="-132" from="2325" to="2324" priority="5" type="highway.unclassified">
        <lane id="-132_0" index="0" disallow="tram rail_urban rail rail_electric ship" speed="13.89" length="112.61" shape="2557.57,4677.09 2604.55,4779.43"/>
    </edge>
    <edge id="-143" from="2369" to="9420" priority="5" type="highway.unclassified" shape="4842.63,5267.16 4811.12,5241.48 4791.25,5224.33 4777.52,5210.62 4763.08,5196.02 4759.12,5190.71 4753.51,5185.69 4749.53,5182.89 4743.86,5181.33 4735.93,5181.86 4730.59,5182.66 4716.21,5187.69 4694.52,5196.24 4653.01,5212.58 4630.99,5222.32 4610.96,5231.47 4576.02,5249.31 4554.70,5260.59 4527.31,5276.70 4508.63,5288.39 4493.84,5298.51 4481.23,5307.87 4465.87,5321.11 4454.62,5333.36 4431.42,5359.76 4420.17,5372.15 4393.85,5400.01 4380.64,5415.33 4371.10,5428.62 4364.31,5438.97 4355.18,5454.92 4339.84,5483.00 4331.57,5499.11 4324.36,5514.45 4315.97,5533.26 4307.93,5549.57 4303.36,5561.51 4299.10,5574.86 4295.38,5587.05 4293.10,5599.25 4292.62,5611.12 4294.28,5624.31 4297.01,5636.04 4299.57,5645.45 4309.27,5676.71 4322.05,5719.69 4336.61,5770.03 4344.68,5795.34 4347.81,5804.68 4350.76,5811.93 4354.03,5819.02 4361.58,5834.33 4375.86,5860.67 4393.10,5894.57 4421.24,5945.39 4451.47,5996.03 4467.70,6024.77 4482.49,6051.95 4489.70,6065.13 4496.73,6079.44 4502.45,6093.26 4507.62,6110.95 4514.51,6132.43 4519.33,6150.33 4521.93,6161.52 4524.30,6177.39 4524.69,6194.26 4523.86,6212.34 4521.26,6289.58 4518.84,6328.64 4517.66,6338.24 4516.52,6345.36 4513.63,6358.95 4510.44,6370.00 4506.76,6379.67 4502.42,6390.35 4496.16,6403.08 4485.66,6421.48 4475.58,6440.49 4461.41,6466.53 4456.31,6477.56 4452.99,6487.64 4452.83,6494.89 4457.05,6500.63 4460.85,6505.41 4465.73,6508.98 4473.39,6511.49 4478.64,6512.30 4485.37,6511.69 4492.36,6508.71 4507.05,6501.85 4518.10,6496.31 4553.03,6478.70 4569.67,6471.07 4580.29,6466.85 4591.86,6462.09 4602.84,6458.00 4614.61,6454.81 4629.47,6451.51 4645.04,6448.66 4656.15,6447.42 4663.10,6447.09 4668.60,6447.37 4673.46,6448.32 4678.51,6449.80 4684.20,6452.29 4690.58,6455.95 4698.59,6461.63 4707.90,6468.85 4728.67,6485.20 4741.69,6495.27 4746.02,6498.79 4751.16,6503.68 4756.26,6509.92 4760.84,6516.49 4769.75,6530.50 4782.29,6550.09 4787.96,6560.11 4792.51,6571.56 4795.90,6585.35 4799.19,6600.96 4808.92,6642.92 4814.91,6667.83 4819.14,6685.00 4822.67,6695.80 4828.23,6703.98 4835.05,6711.07 4843.29,6720.36 4848.58,6725.85 4853.42,6732.41 4857.36,6739.86 4860.03,6750.06 4861.84,6758.97 4863.67,6767.87 4865.96,6777.58 4870.02,6786.67 4874.70,6793.75 4883.45,6803.42 4893.29,6813.05 4931.15,6848.23 4983.18,6898.31">