<?xml version="1.0" encoding="UTF-8"?>

<!-- generated on 05/17/18 15:25:38 by SUMO duarouter Version 0.24.0
<?xml version="1.0" encoding="UTF-8"?>

<configuration xmlns:xsi="http://www.w3.org/2001/XMLSchema-instance" xsi:noNamespaceSchemaLocation="http://sumo.dlr.de/xsd/duarouterConfiguration.xsd">

    <input>
        <net-file value="input_net.net.xml"/>
        <additional-files value="type.add.xml"/>
        <trip-files value="trips.trips.xml"/>
    </input>

    <output>
        <output-file value="routes.rou.xml"/>
    </output>

    <time>
        <begin value="0"/>
        <end value="800"/>
    </time>

</configuration>
-->

<routes xmlns:xsi="http://www.w3.org/2001/XMLSchema-instance" xsi:noNamespaceSchemaLocation="http://sumo.dlr.de/xsd/routes_file.xsd">
    <vehicle id="0" depart="0.00" departLane="best">
        <route edges="93/0 -768/7 -768/6 666/3 619/3 619/4 619/5 2/1 2/2 2/3 2/4 2/5 2/6 665/1 660/0 660/1"/>
    </vehicle>
    <vType id="RSU" guiShape="bus" color="red"/>
    <vehicle id="1000" type="RSU" depart="0.00" departPos="22.15" color="red">
        <route edges="769"/>
        <stop lane="769_0" endPos="22.15" until="799.00" parking="1"/>
    </vehicle>
    <vehicle id="1001" type="RSU" depart="0.00" departPos="43.21" color="red">
        <route edges="471/0"/>
        <stop lane="471/0_0" endPos="43.21" until="799.00" parking="1"/>
    </vehicle>
    <vehicle id="1002" type="RSU" depart="0.00" departPos="919.56" color="red">
        <route edges="-63/10"/>
        <stop lane="-63/10_0" endPos="919.56" until="799.00" parking="1"/>
    </vehicle>
    <vehicle id="1003" type="RSU" depart="0.00" departPos="126.02" color="red">
        <route edges="234/2"/>
        <stop lane="234/2_0" endPos="126.02" until="799.00" parking="1"/>
    </vehicle>
    <vehicle id="1004" type="RSU" depart="0.00" departPos="47.02" color="red">
        <route edges="551"/>
        <stop lane="551_0" endPos="47.02" until="799.00" parking="1"/>
    </vehicle>
    <vehicle id="1005" type="RSU" depart="0.00" departPos="54.35" color="red">
        <route edges="-314"/>
        <stop lane="-314_0" endPos="54.35" until="799.00" parking="1"/>
    </vehicle>
    <vehicle id="1006" type="RSU" depart="0.00" departPos="21.17" color="red">
        <route edges="697/2"/>
        <stop lane="697/2_0" endPos="21.17" until="799.00" parking="1"/>
    </vehicle>
    <vehicle id="1007" type="RSU" depart="0.00" departPos="198.33" color="red">
        <route edges="-6/3"/>
        <stop lane="-6/3_0" endPos="198.33" until="799.00" parking="1"/>
    </vehicle>
    <vehicle id="1008" type="RSU" depart="0.00" departPos="37.31" color="red">
        <route edges="54/3"/>
        <stop lane="54/3_0" endPos="37.31" until="799.00" parking="1"/>
    </vehicle>
    <vehicle id="1009" type="RSU" depart="0.00" departPos="32.24" color="red">
        <route edges="684/1"/>
        <stop lane="684/1_0" endPos="32.24" until="799.00" parking="1"/>
    </vehicle>
    <vehicle id="1010" type="RSU" depart="0.00" departPos="210.85" color="red">
        <route edges="640/0"/>
        <stop lane="640/0_0" endPos="210.85" until="799.00" parking="1"/>
    </vehicle>
    <vehicle id="1011" type="RSU" depart="0.00" departPos="61.19" color="red">
        <route edges="-750"/>
        <stop lane="-750_0" endPos="61.19" until="799.00" parking="1"/>
    </vehicle>
    <vehicle id="1012" type="RSU" depart="0.00" departPos="657.92" color="red">
        <route edges="-58/0"/>
        <stop lane="-58/0_0" endPos="657.92" until="799.00" parking="1"/>
    </vehicle>
    <vehicle id="1013" type="RSU" depart="0.00" departPos="208.66" color="red">
        <route edges="234/0"/>
        <stop lane="234/0_0" endPos="208.66" until="799.00" parking="1"/>
    </vehicle>
    <vehicle id="1014" type="RSU" depart="0.00" departPos="26.87" color="red">
        <route edges="598"/>
        <stop lane="598_0" endPos="26.87" until="799.00" parking="1"/>
    </vehicle>
    <vehicle id="1015" type="RSU" depart="0.00" departPos="167.93" color="red">
        <route edges="667/4"/>
        <stop lane="667/4_0" endPos="167.93" until="799.00" parking="1"/>
    </vehicle>
    <vehicle id="1016" type="RSU" depart="0.00" departPos="103.82" color="red">
        <route edges="78/1"/>
        <stop lane="78/1_0" endPos="103.82" until="799.00" parking="1"/>
    </vehicle>
    <vehicle id="1017" type="RSU" depart="0.00" departPos="340.43" color="red">
        <route edges="-120/0"/>
        <stop lane="-120/0_0" endPos="340.43" until="799.00" parking="1"/>
    </vehicle>
    <vehicle id="1018" type="RSU" depart="0.00" departPos="112.06" color="red">
        <route edges="-579/1"/>
        <stop lane="-579/1_0" endPos="112.06" until="799.00" parking="1"/>
    </vehicle>
    <vehicle id="1019" type="RSU" depart="0.00" departPos="236.84" color="red">
        <route edges="654/1"/>
        <stop lane="654/1_0" endPos="236.84" until="799.00" parking="1"/>
    </vehicle>
    <vehicle id="1020" type="RSU" depart="0.00" departPos="17.30" color="red">
        <route edges="636/2"/>
        <stop lane="636/2_0" endPos="17.30" until="799.00" parking="1"/>
    </vehicle>
    <vehicle id="1021" type="RSU" depart="0.00" departPos="6766.59" color="red">
        <route edges="717/3"/>
        <stop lane="717/3_0" endPos="6766.59" until="799.00" parking="1"/>
    </vehicle>
    <vehicle id="1022" type="RSU" depart="0.00" departPos="14.65" color="red">
        <route edges="826"/>
        <stop lane="826_0" endPos="14.65" until="799.00" parking="1"/>
    </vehicle>
    <vehicle id="1023" type="RSU" depart="0.00" departPos="20.66" color="red">
        <route edges="741/0"/>
        <stop lane="741/0_0" endPos="20.66" until="799.00" parking="1"/>
    </vehicle>
    <vehicle id="1024" type="RSU" depart="0.00" departPos="70.78" color="red">
        <route edges="-116/1"/>
        <stop lane="-116/1_0" endPos="70.78" until="799.00" parking="1"/>
    </vehicle>
    <vehicle id="1025" type="RSU" depart="0.00" departPos="5.84" color="red">
        <route edges="687/2"/>
        <stop lane="687/2_0" endPos="5.84" until="799.00" parking="1"/>
    </vehicle>
    <vehicle id="1026" type="RSU" depart="0.00" departPos="157.80" color="red">
        <route edges="685/3"/>
        <stop lane="685/3_0" endPos="157.80" until="799.00" parking="1"/>
    </vehicle>
    <vehicle id="1027" type="RSU" depart="0.00" departPos="2188.94" color="red">
        <route edges="717/1"/>
        <stop lane="717/1_0" endPos="2188.94" until="799.00" parking="1"/>
    </vehicle>
    <vehicle id="1028" type="RSU" depart="0.00" departPos="76.52" color="red">
        <route edges="-205/1"/>
        <stop lane="-205/1_0" endPos="76.52" until="799.00" parking="1"/>
    </vehicle>
    <vehicle id="1029" type="RSU" depart="0.00" departPos="95.55" color="red">
        <route edges="93/4"/>
        <stop lane="93/4_0" endPos="95.55" until="799.00" parking="1"/>
    </vehicle>
    <vehicle id="1030" type="RSU" depart="0.00" departPos="209.35" color="red">
        <route edges="615/10"/>
        <stop lane="615/10_0" endPos="209.35" until="799.00" parking="1"/>
    </vehicle>
    <vehicle id="1031" type="RSU" depart="0.00" departPos="43.26" color="red">
        <route edges="-111/1"/>
        <stop lane="-111/1_0" endPos="43.26" until="799.00" parking="1"/>
    </vehicle>
    <vehicle id="1032" type="RSU" depart="0.00" departPos="2544.88" color="red">
        <route edges="-143"/>
        <stop lane="-143_0" endPos="2544.88" until="799.00" parking="1"/>
    </vehicle>
    <vehicle id="1033" type="RSU" depart="0.00" departPos="433.80" color="red">
        <route edges="667/2"/>
        <stop lane="667/2_0" endPos="433.80" until="799.00" parking="1"/>
    </vehicle>
    <vehicle id="1034" type="RSU" depart="0.00" departPos="623.79" color="red">
        <route edges="100/2"/>
        <stop lane="100/2_0" endPos="623.79" until="799.00" parking="1"/>
    </vehicle>
    <vehicle id="1035" type="RSU" depart="0.00" departPos="76.19" color="red">
        <route edges="-93/3"/>
        <stop lane="-93/3_0" endPos="76.19" until="799.00" parking="1"/>
    </vehicle>
    <vehicle id="1036" type="RSU" depart="0.00" departPos="315.68" color="red">
        <route edges="653"/>
        <stop lane="653_0" endPos="315.68" until="799.00" parking="1"/>
    </vehicle>
    <vehicle id="1037" type="RSU" depart="0.00" departPos="130.32" color="red">
        <route edges="719/2"/>
        <stop lane="719/2_0" endPos="130.32" until="799.00" parking="1"/>
    </vehicle>
    <vehicle id="1038" type="RSU" depart="0.00" departPos="102.45" color="red">
        <route edges="6/5"/>
        <stop lane="6/5_0" endPos="102.45" until="799.00" parking="1"/>
    </vehicle>
    <vehicle id="1039" type="RSU" depart="0.00" departPos="251.00" color="red">
        <route edges="127"/>
        <stop lane="127_0" endPos="251.00" until="799.00" parking="1"/>
    </vehicle>
    <vehicle id="1040" type="RSU" depart="0.00" departPos="28.88" color="red">
        <route edges="719/4"/>
        <stop lane="719/4_0" endPos="28.88" until="799.00" parking="1"/>
    </vehicle>
    <vehicle id="1041" type="RSU" depart="0.00" departPos="138.09" color="red">
        <route edges="570"/>
        <stop lane="570_0" endPos="138.09" until="799.00" parking="1"/>
    </vehicle>
    <vehicle id="1042" type="RSU" depart="0.00" departPos="415.78" color="red">
        <route edges="58/4"/>
        <stop lane="58/4_0" endPos="415.78" until="799.00" parking="1"/>
    </vehicle>
    <vehicle id="1043" type="RSU" depart="0.00" departPos="93.66" color="red">
        <route edges="731"/>
        <stop lane="731_0" endPos="93.66" until="799.00" parking="1"/>
    </vehicle>
    <vehicle id="1044" type="RSU" depart="0.00" departPos="400.67" color="red">
        <route edges="67/3"/>
        <stop lane="67/3_0" endPos="400.67" until="799.00" parking="1"/>
    </vehicle>
    <vehicle id="1045" type="RSU" depart="0.00" departPos="253.44" color="red">
        <route edges="687/0"/>
        <stop lane="687/0_0" endPos="253.44" until="799.00" parking="1"/>
    </vehicle>
    <vehicle id="1046" type="RSU" depart="0.00" departPos="107.90" color="red">
        <route edges="58/2"/>
        <stop lane="58/2_0" endPos="107.90" until="799.00" parking="1"/>
    </vehicle>
    <vehicle id="1047" type="RSU" depart="0.00" departPos="51.55" color="red">
        <route edges="-282/1"/>
        <stop lane="-282/1_0" endPos="51.55" until="799.00" parking="1"/>
    </vehicle>
    <vehicle id="1048" type="RSU" depart="0.00" departPos="42.61" color="red">
        <route edges="-63/7"/>
        <stop lane="-63/7_0" endPos="42.61" until="799.00" parking="1"/>
    </vehicle>
    <vehicle id="1049" type="RSU" depart="0.00" departPos="304.86" color="red">
        <route edges="685/4"/>
        <stop lane="685/4_0" endPos="304.86" until="799.00" parking="1"/>
    </vehicle>
    <vehicle id="1050" type="RSU" depart="0.00" departPos="21.60" color="red">
        <route edges="625/2"/>
        <stop lane="625/2_0" endPos="21.60" until="799.00" parking="1"/>
    </vehicle>
    <vehicle id="1051" type="RSU" depart="0.00" departPos="10.10" color="red">
        <route edges="709/1"/>
        <stop lane="709/1_0" endPos="10.10" until="799.00" parking="1"/>
    </vehicle>
    <vehicle id="1052" type="RSU" depart="0.00" departPos="220.09" color="red">
        <route edges="395"/>
        <stop lane="395_0" endPos="220.09" until="799.00" parking="1"/>
    </vehicle>
    <vehicle id="1053" type="RSU" depart="0.00" departPos="31.30" color="red">
        <route edges="11/2"/>
        <stop lane="11/2_0" endPos="31.30" until="799.00" parking="1"/>
    </vehicle>
    <vehicle id="1054" type="RSU" depart="0.00" departPos="26.56" color="red">
        <route edges="-92/1"/>
        <stop lane="-92/1_0" endPos="26.56" until="799.00" parking="1"/>
    </vehicle>
    <vehicle id="1055" type="RSU" depart="0.00" departPos="140.55" color="red">
        <route edges="655/0"/>
        <stop lane="655/0_0" endPos="140.55" until="799.00" parking="1"/>
    </vehicle>
    <vehicle id="1056" type="RSU" depart="0.00" departPos="36.83" color="red">
        <route edges="694"/>
        <stop lane="694_0" endPos="36.83" until="799.00" parking="1"/>
    </vehicle>
    <vehicle id="1057" type="RSU" depart="0.00" departPos="919.56" color="red">
        <route edges="63/10"/>
        <stop lane="63/10_0" endPos="919.56" until="799.00" parking="1"/>
    </vehicle>
    <vehicle id="1058" type="RSU" depart="0.00" departPos="35.69" color="red">
        <route edges="-63/3"/>
        <stop lane="-63/3_0" endPos="35.69" until="799.00" parking="1"/>
    </vehicle>
    <vehicle id="1059" type="RSU" depart="0.00" departPos="237.79" color="red">
        <route edges="92/2"/>
        <stop lane="92/2_0" endPos="237.79" until="799.00" parking="1"/>
    </vehicle>
    <vehicle id="1060" type="RSU" depart="0.00" departPos="25.38" color="red">
        <route edges="719/0"/>
        <stop lane="719/0_0" endPos="25.38" until="799.00" parking="1"/>
    </vehicle>
    <vehicle id="1061" type="RSU" depart="0.00" departPos="48.92" color="red">
        <route edges="-93/1"/>
        <stop lane="-93/1_0" endPos="48.92" until="799.00" parking="1"/>
    </vehicle>
    <vehicle id="1062" type="RSU" depart="0.00" departPos="43.55" color="red">
        <route edges="86/0"/>
        <stop lane="86/0_0" endPos="43.55" until="799.00" parking="1"/>
    </vehicle>
    <vehicle id="1063" type="RSU" depart="0.00" departPos="67.03" color="red">
        <route edges="737/2"/>
        <stop lane="737/2_0" endPos="67.03" until="799.00" parking="1"/>
    </vehicle>
    <vehicle id="1064" type="RSU" depart="0.00" departPos="25.68" color="red">
        <route edges="574"/>
        <stop lane="574_0" endPos="25.68" until="799.00" parking="1"/>
    </vehicle>
    <vehicle id="1065" type="RSU" depart="0.00" departPos="6770.26" color="red">
        <route edges="718/0"/>
        <stop lane="718/0_0" endPos="6770.26" until="799.00" parking="1"/>
    </vehicle>
    <vehicle id="1066" type="RSU" depart="0.00" departPos="61.54" color="red">
        <route edges="565/1"/>
        <stop lane="565/1_0" endPos="61.54" until="799.00" parking="1"/>
    </vehicle>
    <vehicle id="1067" type="RSU" depart="0.00" departPos="403.26" color="red">
        <route edges="554/0"/>
        <stop lane="554/0_0" endPos="403.26" until="799.00" parking="1"/>
    </vehicle>
    <vehicle id="1068" type="RSU" depart="0.00" departPos="324.98" color="red">
        <route edges="595/2"/>
        <stop lane="595/2_0" endPos="324.98" until="799.00" parking="1"/>
    </vehicle>
    <vehicle id="1069" type="RSU" depart="0.00" departPos="609.57" color="red">
        <route edges="541"/>
        <stop lane="541_0" endPos="609.57" until="799.00" parking="1"/>
    </vehicle>
    <vehicle id="1070" type="RSU" depart="0.00" departPos="193.17" color="red">
        <route edges="-55/0"/>
        <stop lane="-55/0_0" endPos="193.17" until="799.00" parking="1"/>
    </vehicle>
    <vehicle id="1071" type="RSU" depart="0.00" departPos="5756.54" color="red">
        <route edges="718/2"/>
        <stop lane="718/2_0" endPos="5756.54" until="799.00" parking="1"/>
    </vehicle>
    <vehicle id="1072" type="RSU" depart="0.00" departPos="5.82" color="red">
        <route edges="-81/5"/>
        <stop lane="-81/5_0" endPos="5.82" until="799.00" parking="1"/>
    </vehicle>
    <vehicle id="1073" type="RSU" depart="0.00" departPos="6.66" color="red">
        <route edges="-698/1"/>
        <stop lane="-698/1_0" endPos="6.66" until="799.00" parking="1"/>
    </vehicle>
    <vehicle id="1074" type="RSU" depart="0.00" departPos="558.89" color="red">
        <route edges="-62/2"/>
        <stop lane="-62/2_0" endPos="558.89" until="799.00" parking="1"/>
    </vehicle>
    <vehicle id="1075" type="RSU" depart="0.00" departPos="158.49" color="red">
        <route edges="-13/2"/>
        <stop lane="-13/2_0" endPos="158.49" until="799.00" parking="1"/>
    </vehicle>
    <vehicle id="1076" type="RSU" depart="0.00" departPos="7.40" color="red">
        <route edges="645"/>
        <stop lane="645_0" endPos="7.40" until="799.00" parking="1"/>
    </vehicle>
    <vehicle id="1077" type="RSU" depart="0.00" departPos="50.29" color="red">
        <route edges="-597"/>
        <stop lane="-597_0" endPos="50.29" until="799.00" parking="1"/>
    </vehicle>
    <vehicle id="1078" type="RSU" depart="0.00" departPos="88.54" color="red">
        <route edges="-63/5"/>
        <stop lane="-63/5_0" endPos="88.54" until="799.00" parking="1"/>
    </vehicle>
    <vehicle id="1079" type="RSU" depart="0.00" departPos="210.36" color="red">
        <route edges="568/1"/>
        <stop lane="568/1_0" endPos="210.36" until="799.00" parking="1"/>
    </vehicle>
    <vehicle id="1080" type="RSU" depart="0.00" departPos="122.92" color="red">
        <route edges="749"/>
        <stop lane="749_0" endPos="122.92" until="799.00" parking="1"/>
    </vehicle>
    <vehicle id="1081" type="RSU" depart="0.00" departPos="7.93" color="red">
        <route edges="595/0"/>
        <stop lane="595/0_0" endPos="7.93" until="799.00" parking="1"/>
    </vehicle>
    <vehicle id="1082" type="RSU" depart="0.00" departPos="99.93" color="red">
        <route edges="41/1"/>
        <stop lane="41/1_0" endPos="99.93" until="799.00" parking="1"/>
    </vehicle>
    <vehicle id="1083" type="RSU" depart="0.00" departPos="50.42" color="red">
        <route edges="203/0"/>
        <stop lane="203/0_0" endPos="50.42" until="799.00" parking="1"/>
    </vehicle>
    <vehicle id="1084" type="RSU" depart="0.00" departPos="3.49" color="red">
        <route edges="-823/1"/>
        <stop lane="-823/1_0" endPos="3.49" until="799.00" parking="1"/>
    </vehicle>
    <vehicle id="1085" type="RSU" depart="0.00" departPos="581.73" color="red">
        <route edges="103/1"/>
        <stop lane="103/1_0" endPos="581.73" until="799.00" parking="1"/>
    </vehicle>
    <vehicle id="1086" type="RSU" depart="0.00" departPos="71.34" color="red">
        <route edges="569/0"/>
        <stop lane="569/0_0" endPos="71.34" until="799.00" parking="1"/>
    </vehicle>
    <vehicle id="1087" type="RSU" depart="0.00" departPos="105.06" color="red">
        <route edges="617/2"/>
        <stop lane="617/2_0" endPos="105.06" until="799.00" parking="1"/>
    </vehicle>
    <vehicle id="1088" type="RSU" depart="0.00" departPos="154.73" color="red">
        <route edges="617/0"/>
        <stop lane="617/0_0" endPos="154.73" until="799.00" parking="1"/>
    </vehicle>
    <vehicle id="1089" type="RSU" depart="0.00" departPos="336.39" color="red">
        <route edges="712/1"/>
        <stop lane="712/1_0" endPos="336.39" until="799.00" parking="1"/>
    </vehicle>
    <vehicle id="1090" type="RSU" depart="0.00" departPos="67.87" color="red">
        <route edges="-45/1"/>
        <stop lane="-45/1_0" endPos="67.87" until="799.00" parking="1"/>
    </vehicle>
    <vehicle id="1091" type="RSU" depart="0.00" departPos="53.64" color="red">
        <route edges="71/0"/>
        <stop lane="71/0_0" endPos="53.64" until="799.00" parking="1"/>
    </vehicle>
    <vehicle id="1092" type="RSU" depart="0.00" departPos="57.52" color="red">
        <route edges="615/5"/>
        <stop lane="615/5_0" endPos="57.52" until="799.00" parking="1"/>
    </vehicle>
    <vehicle id="1093" type="RSU" depart="0.00" departPos="16.20" color="red">
        <route edges="196/3"/>
        <stop lane="196/3_0" endPos="16.20" until="799.00" parking="1"/>
    </vehicle>
    <vehicle id="1094" type="RSU" depart="0.00" departPos="243.92" color="red">
        <route edges="130/1"/>
        <stop lane="130/1_0" endPos="243.92" until="799.00" parking="1"/>
    </vehicle>
    <vehicle id="1095" type="RSU" depart="0.00" departPos="669.96" color="red">
        <route edges="558/0"/>
        <stop lane="558/0_0" endPos="669.96" until="799.00" parking="1"/>
    </vehicle>
    <vehicle id="1096" type="RSU" depart="0.00" departPos="49.71" color="red">
        <route edges="-825"/>
        <stop lane="-825_0" endPos="49.71" until="799.00" parking="1"/>
    </vehicle>
    <vehicle id="1097" type="RSU" depart="0.00" departPos="375.46" color="red">
        <route edges="646/1"/>
        <stop lane="646/1_0" endPos="375.46" until="799.00" parking="1"/>
    </vehicle>
    <vehicle id="1098" type="RSU" depart="0.00" departPos="45.56" color="red">
        <route edges="552"/>
        <stop lane="552_0" endPos="45.56" until="799.00" parking="1"/>
    </vehicle>
    <vehicle id="1099" type="RSU" depart="0.00" departPos="54.71" color="red">
        <route edges="-43"/>
        <stop lane="-43_0" endPos="54.71" until="799.00" parking="1"/>
    </vehicle>
    <vehicle id="1100" type="RSU" depart="0.00" departPos="254.22" color="red">
        <route edges="650/0"/>
        <stop lane="650/0_0" endPos="254.22" until="799.00" parking="1"/>
    </vehicle>
    <vehicle id="1101" type="RSU" depart="0.00" departPos="17.02" color="red">
        <route edges="-6/0"/>
        <stop lane="-6/0_0" endPos="17.02" until="799.00" parking="1"/>
    </vehicle>
    <vehicle id="1102" type="RSU" depart="0.00" departPos="160.26" color="red">
        <route edges="-6/2"/>
        <stop lane="-6/2_0" endPos="160.26" until="799.00" parking="1"/>
    </vehicle>
    <vehicle id="1103" type="RSU" depart="0.00" departPos="140.85" color="red">
        <route edges="13/8"/>
        <stop lane="13/8_0" endPos="140.85" until="799.00" parking="1"/>
    </vehicle>
    <vehicle id="1104" type="RSU" depart="0.00" departPos="341.17" color="red">
        <route edges="628/1"/>
        <stop lane="628/1_0" endPos="341.17" until="799.00" parking="1"/>
    </vehicle>
    <vehicle id="1105" type="RSU" depart="0.00" departPos="32.85" color="red">
        <route edges="-294/0"/>
        <stop lane="-294/0_0" endPos="32.85" until="799.00" parking="1"/>
    </vehicle>
    <vehicle id="1106" type="RSU" depart="0.00" departPos="256.11" color="red">
        <route edges="-823/3"/>
        <stop lane="-823/3_0" endPos="256.11" until="799.00" parking="1"/>
    </vehicle>
    <vehicle id="1107" type="RSU" depart="0.00" departPos="40.06" color="red">
        <route edges="550"/>
        <stop lane="550_0" endPos="40.06" until="799.00" parking="1"/>
    </vehicle>
    <vehicle id="1108" type="RSU" depart="0.00" departPos="204.44" color="red">
        <route edges="-54/0"/>
        <stop lane="-54/0_0" endPos="204.44" until="799.00" parking="1"/>
    </vehicle>
    <vehicle id="1109" type="RSU" depart="0.00" departPos="6.52" color="red">
        <route edges="697/3"/>
        <stop lane="697/3_0" endPos="6.52" until="799.00" parking="1"/>
    </vehicle>
    <vehicle id="1110" type="RSU" depart="0.00" departPos="218.81" color="red">
        <route edges="697/1"/>
        <stop lane="697/1_0" endPos="218.81" until="799.00" parking="1"/>
    </vehicle>
    <vehicle id="1111" type="RSU" depart="0.00" departPos="522.92" color="red">
        <route edges="708/1"/>
        <stop lane="708/1_0" endPos="522.92" until="799.00" parking="1"/>
    </vehicle>
    <vehicle id="1112" type="RSU" depart="0.00" departPos="261.80" color="red">
        <route edges="-58/1"/>
        <stop lane="-58/1_0" endPos="261.80" until="799.00" parking="1"/>
    </vehicle>
    <vehicle id="1113" type="RSU" depart="0.00" departPos="237.79" color="red">
        <route edges="-92/2"/>
        <stop lane="-92/2_0" endPos="237.79" until="799.00" parking="1"/>
    </vehicle>
    <vehicle id="1114" type="RSU" depart="0.00" departPos="255.12" color="red">
        <route edges="685/2"/>
        <stop lane="685/2_0" endPos="255.12" until="799.00" parking="1"/>
    </vehicle>
    <vehicle id="1115" type="RSU" depart="0.00" departPos="66.74" color="red">
        <route edges="141"/>
        <stop lane="141_0" endPos="66.74" until="799.00" parking="1"/>
    </vehicle>
    <vehicle id="1116" type="RSU" depart="0.00" departPos="358.53" color="red">
        <route edges="91/1"/>
        <stop lane="91/1_0" endPos="358.53" until="799.00" parking="1"/>
    </vehicle>
    <vehicle id="1117" type="RSU" depart="0.00" departPos="141.14" color="red">
        <route edges="706/5"/>
        <stop lane="706/5_0" endPos="141.14" until="799.00" parking="1"/>
    </vehicle>
    <vehicle id="1118" type="RSU" depart="0.00" departPos="276.70" color="red">
        <route edges="612/1"/>
        <stop lane="612/1_0" endPos="276.70" until="799.00" parking="1"/>
    </vehicle>
    <vehicle id="1119" type="RSU" depart="0.00" departPos="171.93" color="red">
        <route edges="-62/0"/>
        <stop lane="-62/0_0" endPos="171.93" until="799.00" parking="1"/>
    </vehicle>
    <vehicle id="1120" type="RSU" depart="0.00" departPos="41.06" color="red">
        <route edges="611"/>
        <stop lane="611_0" endPos="41.06" until="799.00" parking="1"/>
    </vehicle>
    <vehicle id="1121" type="RSU" depart="0.00" departPos="998.87" color="red">
        <route edges="587/2"/>
        <stop lane="587/2_0" endPos="998.87" until="799.00" parking="1"/>
    </vehicle>
    <vehicle id="1122" type="RSU" depart="0.00" departPos="57.84" color="red">
        <route edges="-42/0"/>
        <stop lane="-42/0_0" endPos="57.84" until="799.00" parking="1"/>
    </vehicle>
    <vehicle id="1123" type="RSU" depart="0.00" departPos="18.08" color="red">
        <route edges="629/0"/>
        <stop lane="629/0_0" endPos="18.08" until="799.00" parking="1"/>
    </vehicle>
    <vehicle id="1124" type="RSU" depart="0.00" departPos="59.80" color="red">
        <route edges="-205/0"/>
        <stop lane="-205/0_0" endPos="59.80" until="799.00" parking="1"/>
    </vehicle>
    <vehicle id="1125" type="RSU" depart="0.00" departPos="6.31" color="red">
        <route edges="-6/4"/>
        <stop lane="-6/4_0" endPos="6.31" until="799.00" parking="1"/>
    </vehicle>
    <vehicle id="1126" type="RSU" depart="0.00" departPos="2.30" color="red">
        <route edges="634/1"/>
        <stop lane="634/1_0" endPos="2.30" until="799.00" parking="1"/>
    </vehicle>
    <vehicle id="1127" type="RSU" depart="0.00" departPos="31.62" color="red">
        <route edges="613"/>
        <stop lane="613_0" endPos="31.62" until="799.00" parking="1"/>
    </vehicle>
    <vehicle id="1128" type="RSU" depart="0.00" departPos="550.10" color="red">
        <route edges="707/2"/>
        <stop lane="707/2_0" endPos="550.10" until="799.00" parking="1"/>
    </vehicle>
    <vehicle id="1129" type="RSU" depart="0.00" departPos="44.12" color="red">
        <route edges="649"/>
        <stop lane="649_0" endPos="44.12" until="799.00" parking="1"/>
    </vehicle>
    <vehicle id="1130" type="RSU" depart="0.00" departPos="95.57" color="red">
        <route edges="-83"/>
        <stop lane="-83_0" endPos="95.57" until="799.00" parking="1"/>
    </vehicle>
    <vehicle id="1131" type="RSU" depart="0.00" departPos="49.71" color="red">
        <route edges="825"/>
        <stop lane="825_0" endPos="49.71" until="799.00" parking="1"/>
    </vehicle>
    <vehicle id="1132" type="RSU" depart="0.00" departPos="7.87" color="red">
        <route edges="705/2"/>
        <stop lane="705/2_0" endPos="7.87" until="799.00" parking="1"/>
    </vehicle>
    <vehicle id="1133" type="RSU" depart="0.00" departPos="134.40" color="red">
        <route edges="13/7"/>
        <stop lane="13/7_0" endPos="134.40" until="799.00" parking="1"/>
    </vehicle>
    <vehicle id="1134" type="RSU" depart="0.00" departPos="120.60" color="red">
        <route edges="491/0"/>
        <stop lane="491/0_0" endPos="120.60" until="799.00" parking="1"/>
    </vehicle>
    <vehicle id="1135" type="RSU" depart="0.00" departPos="130.00" color="red">
        <route edges="-93/2"/>
        <stop lane="-93/2_0" endPos="130.00" until="799.00" parking="1"/>
    </vehicle>
    <vehicle id="1136" type="RSU" depart="0.00" departPos="55.73" color="red">
        <route edges="71/2"/>
        <stop lane="71/2_0" endPos="55.73" until="799.00" parking="1"/>
    </vehicle>
    <vehicle id="1137" type="RSU" depart="0.00" departPos="178.77" color="red">
        <route edges="-109/0"/>
        <stop lane="-109/0_0" endPos="178.77" until="799.00" parking="1"/>
    </vehicle>
    <vehicle id="1138" type="RSU" depart="0.00" departPos="5.54" color="red">
        <route edges="783/1"/>
        <stop lane="783/1_0" endPos="5.54" until="799.00" parking="1"/>
    </vehicle>
    <vehicle id="1139" type="RSU" depart="0.00" departPos="191.34" color="red">
        <route edges="705/0"/>
        <stop lane="705/0_0" endPos="191.34" until="799.00" parking="1"/>
    </vehicle>
    <vehicle id="1140" type="RSU" depart="0.00" departPos="42.78" color="red">
        <route edges="687/1"/>
        <stop lane="687/1_0" endPos="42.78" until="799.00" parking="1"/>
    </vehicle>
    <vehicle id="1141" type="RSU" depart="0.00" departPos="137.06" color="red">
        <route edges="732"/>
        <stop lane="732_0" endPos="137.06" until="799.00" parking="1"/>
    </vehicle>
    <vehicle id="1142" type="RSU" depart="0.00" departPos="6.79" color="red">
        <route edges="-580/2"/>
        <stop lane="-580/2_0" endPos="6.79" until="799.00" parking="1"/>
    </vehicle>
    <vehicle id="1143" type="RSU" depart="0.00" departPos="133.06" color="red">
        <route edges="-580/0"/>
        <stop lane="-580/0_0" endPos="133.06" until="799.00" parking="1"/>
    </vehicle>
    <vehicle id="1144" type="RSU" depart="0.00" departPos="81.09" color="red">
        <route edges="602/2"/>
        <stop lane="602/2_0" endPos="81.09" until="799.00" parking="1"/>
    </vehicle>
    <vehicle id="1145" type="RSU" depart="0.00" departPos="116.09" color="red">
        <route edges="-123"/>
        <stop lane="-123_0" endPos="116.09" until="799.00" parking="1"/>
    </vehicle>