<?xml version="1.0" encoding="UTF-8"?>

<!-- generated on 05/12/18 12:50:58 by SUMO netconvert Version 0.24.0
<?xml version="1.0" encoding="UTF-8"?>

<configuration xmlns:xsi="http://www.w3.org/2001/XMLSchema-instance" xsi:noNamespaceSchemaLocation="http://sumo.dlr.de/xsd/netconvertConfiguration.xsd">

    <input>
        <type-files value="F:\Tools\sumo-0.24.0/data/typemap/osmNetconvert.typ.xml"/>
        <osm-files value="target.osm"/>
    </input>

    <output>
        <output-file value="input_net.net.xml"/>
    </output>

    <projection>
        <proj.utm value="true"/>
    </projection>

    <processing>
        <no-internal-links value="true"/>
    </processing>

</configuration>
-->

<net version="0.13" xmlns:xsi="http://www.w3.org/2001/XMLSchema-instance" xsi:noNamespaceSchemaLocation="http://sumo.dlr.de/xsd/net_file.xsd">

    <location netOffset="-174412.07,-2488892.65" convBoundary="0.00,0.00,32014.67,16693.92" origBoundary="113.832765,22.476730,114.145557,22.626028" projParameter="+proj=utm +zone=50 +ellps=WGS84 +datum=WGS84 +units=m +no_defs"/>

    <type id="highway.bridleway" priority="1" numLanes="1" speed="2.78" allow="pedestrian" oneway="1" width="2.00"/>
    <type id="highway.bus_guideway" priority="1" numLanes="1" speed="8.33" allow="bus" oneway="1"/>
    <type id="highway.cycleway" priority="1" numLanes="1" speed="5.56" allow="bicycle" oneway="0" width="1.00"/>
    <type id="highway.footway" priority="1" numLanes="1" speed="8.33" allow="pedestrian" oneway="1" width="2.00"/>
    <type id="highway.ford" priority="1" numLanes="1" speed="2.78" allow="army" oneway="0"/>
    <type id="highway.living_street" priority="3" numLanes="1" speed="2.78" disallow="tram rail_urban rail rail_electric ship" oneway="0"/>
    <type id="highway.motorway" priority="13" numLanes="2" speed="44.44" allow="private emergency authority army vip passenger hov taxi bus coach delivery truck trailer motorcycle evehicle custom1 custom2" oneway="1"/>
    <type id="highway.motorway_link" priority="12" numLanes="1" speed="22.22" allow="private emergency authority army vip passenger hov taxi bus coach delivery truck trailer motorcycle evehicle custom1 custom2" oneway="1"/>
    <type id="highway.path" priority="1" numLanes="1" speed="2.78" allow="bicycle pedestrian" oneway="1" width="2.00"/>
    <type id="highway.pedestrian" priority="1" numLanes="1" speed="8.33" allow="pedestrian" oneway="1" width="2.00"/>
    <type id="highway.primary" priority="9" numLanes="2" speed="27.78" disallow="tram rail_urban rail rail_electric ship" oneway="0"/>
    <type id="highway.primary_link" priority="8" numLanes="1" speed="22.22" disallow="tram rail_urban rail rail_electric ship" oneway="0"/>
    <type id="highway.raceway" priority="14" numLanes="2" speed="83.33" allow="vip" oneway="0"/>
    <type id="highway.residential" priority="4" numLanes="1" speed="13.89" disallow="tram rail_urban rail rail_electric ship" oneway="0"/>
    <type id="highway.secondary" priority="7" numLanes="2" speed="27.78" disallow="tram rail_urban rail rail_electric ship" oneway="0"/>
    <type id="highway.secondary_link" priority="6" numLanes="1" speed="22.22" disallow="tram rail_urban rail rail_electric ship" oneway="0"/>
    <type id="highway.service" priority="2" numLanes="1" speed="5.56" allow="delivery bicycle pedestrian" oneway="0"/>
    <type id="highway.services" priority="1" numLanes="1" speed="8.33" disallow="tram rail_urban rail rail_electric ship" oneway="0"/>
    <type id="highway.stairs" priority="1" numLanes="1" speed="1.39" allow="pedestrian" oneway="1" width="2.00"/>
    <type id="highway.step" priority="1" numLanes="1" speed="1.39" allow="pedestrian" oneway="1" width="2.00"/>
    <type id="highway.steps" priority="1" numLanes="1" speed="1.39" allow="pedestrian" oneway="1" width="2.00"/>
    <type id="highway.tertiary" priority="6" numLanes="1" speed="22.22" disallow="tram rail_urban rail rail_electric ship" oneway="0"/>
    <type id="highway.tertiary_link" priority="5" numLanes="1" speed="22.22" disallow="tram rail_urban rail rail_electric ship" oneway="0"/>
    <type id="highway.track" priority="1" numLanes="1" speed="5.56" disallow="tram rail_urban rail rail_electric ship" oneway="0"/>
    <type id="highway.trunk" priority="11" numLanes="2" speed="27.78" disallow="tram rail_urban rail rail_electric bicycle pedestrian ship" oneway="0"/>
    <type id="highway.trunk_link" priority="10" numLanes="1" speed="22.22" disallow="tram rail_urban rail rail_electric bicycle pedestrian ship" oneway="0"/>
    <type id="highway.unclassified" priority="5" numLanes="1" speed="13.89" disallow="tram rail_urban rail rail_electric ship" oneway="0"/>
    <type id="highway.unsurfaced" priority="1" numLanes="1" speed="8.33" disallow="tram rail_urban rail rail_electric ship" oneway="0"/>
    <type id="railway.light_rail" priority="15" numLanes="1" speed="27.78" allow="rail_urban" oneway="1"/>
    <type id="railway.preserved" priority="15" numLanes="1" speed="27.78" allow="rail" oneway="1"/>
    <type id="railway.rail" priority="15" numLanes="1" speed="83.33" allow="rail rail_electric" oneway="1"/>
    <type id="railway.subway" priority="15" numLanes="1" speed="27.78" allow="rail_urban" oneway="1"/>
    <type id="railway.tram" priority="15" numLanes="1" speed="13.89" allow="tram" oneway="1"/>

    <edge id="-10" from="685" to="645" priority="7" type="highway.secondary" shape="25182.55,7425.85 25181.41,7297.55 25180.95,7244.85">
        <lane id="-10_0" index="0" disallow="tram rail_urban rail rail_electric ship" speed="27.78" length="181.01" shape="25177.56,7421.07 25176.46,7297.60 25176.05,7250.64"/>
        <lane id="-10_1" index="1" disallow="tram rail_urban rail rail_electric ship" speed="27.78" length="181.01" shape="25180.86,7421.04 25179.76,7297.57 25179.35,7250.61"/>
    </edge>
    <edge id="-103/0" from="5380" to="932" priority="7" type="highway.secondary">
        <lane id="-103/0_0" index="0" disallow="tram rail_urban rail rail_electric ship" speed="27.78" length="123.96" shape="26131.01,6926.22 26130.64,6807.14"/>
        <lane id="-103/0_1" index="1" disallow="tram rail_urban rail rail_electric ship" speed="27.78" length="123.96" shape="26134.31,6926.21 26133.94,6807.13"/>
    </edge>
    <edge id="-103/1" from="931" to="5380" priority="7" type="highway.secondary">
        <lane id="-103/1_0" index="0" disallow="tram rail_urban rail rail_electric ship" speed="27.78" length="51.07" shape="26131.16,6975.79 26131.04,6935.72"/>
        <lane id="-103/1_1" index="1" disallow="tram rail_urban rail rail_electric ship" speed="27.78" length="51.07" shape="26134.46,6975.78 26134.34,6935.71"/>
    </edge>
    <edge id="-111" from="898" to="1612" priority="6" type="highway.secondary_link" shape="24869.89,7660.35 24860.44,7660.41 24853.13,7661.02">
        <lane id="-111_0" index="0" disallow="tram rail_urban rail rail_electric ship" speed="22.22" length="16.78" shape="24865.10,7662.03 24860.45,7662.06 24858.30,7662.24"/>
    </edge>
    <edge id="-114" from="1621" to="631" priority="6" type="highway.secondary_link" shape="26414.86,7439.83 26412.39,7432.49 26407.34,7428.48 26404.16,7427.92">
        <lane id="-114_0" index="0" disallow="tram rail_urban rail rail_electric ship" speed="22.22" length="8.19" shape="26409.20,7430.48 26409.01,7430.45"/>
    </edge>
    <edge id="-115/0" from="938" to="2491" priority="6" type="highway.tertiary" shape="26818.24,7323.67 26752.83,7345.15 26713.58,7358.28 26698.70,7359.94 26679.69,7361.68 26669.24,7364.36 26663.01,7370.24 26659.04,7378.56 26657.89,7390.66 26653.95,7401.17 26646.89,7407.90 26630.20,7415.64 26623.95,7420.97 26587.30,7414.47 26550.05,7414.96 26549.69,7396.32 26414.96,7399.90">
        <lane id="-115/0_0" index="0" disallow="tram rail_urban rail rail_electric ship" speed="22.22" length="460.50" shape="26813.25,7327.05 26753.35,7346.72 26713.94,7359.90 26698.88,7361.58 26679.84,7363.33 26670.06,7365.85 26664.37,7371.23 26660.66,7379.00 26659.51,7391.03 26655.37,7402.10 26647.83,7409.28 26631.10,7417.04 26624.43,7422.73 26587.17,7416.12 26548.44,7416.63 26548.07,7398.02 26419.85,7401.42"/>
    </edge>
    <edge id="-115/1" from="1774" to="938" priority="6" type="highway.tertiary" shape="27120.55,7013.55 27122.08,7091.15 27103.59,7091.51 27101.33,7169.27 27098.35,7185.04 27093.83,7199.86 27084.19,7215.98 27070.08,7229.71 27051.80,7241.05 27023.22,7253.39 26818.24,7323.67">
        <lane id="-115/1_0" index="0" disallow="tram rail_urban rail rail_electric ship" speed="22.22" length="513.25" shape="27122.20,7013.52 27123.76,7092.77 27105.19,7093.13 27102.98,7169.32 27099.97,7185.34 27095.35,7200.54 27085.49,7217.01 27071.11,7231.02 27052.67,7242.45 27023.87,7254.90 26824.43,7323.30"/>
    </edge>
    <edge id="-118/0" from="1843" to="1831" priority="5" type="highway.unclassified" shape="26637.36,7065.75 26637.31,7054.17 26637.21,7031.81">
        <lane id="-118/0_0" index="0" disallow="tram rail_urban rail rail_electric ship" speed="13.89" length="33.95" shape="26635.69,7061.02 26635.66,7054.18 26635.58,7036.35"/>
    </edge>
    <edge id="-118/1" from="1819" to="1843" priority="5" type="highway.unclassified" shape="26652.25,7200.35 26685.90,7200.13 26692.67,7187.92 26690.74,7075.49 26678.34,7065.72 26645.22,7065.74 26637.36,7065.75">
        <lane id="-118/1_0" index="0" disallow="tram rail_urban rail rail_electric ship" speed="13.89" length="216.83" shape="26654.74,7198.69 26684.92,7198.49 26691.02,7187.50 26689.11,7076.30 26677.77,7067.37 26645.22,7067.39 26642.10,7067.40"/>
    </edge>
    <edge id="-118/2" from="1823" to="1819" priority="5" type="highway.unclassified">
        <lane id="-118/2_0" index="0" disallow="tram rail_urban rail rail_electric ship" speed="13.89" length="27.88" shape="26626.88,7198.87 26649.74,7198.72"/>
    </edge>
    <edge id="-118/3" from="1843" to="1823" priority="5" type="highway.unclassified" shape="26637.36,7065.75 26628.37,7065.92 26597.97,7066.46 26585.77,7076.85 26586.71,7188.16 26594.35,7200.75 26624.37,7200.54">
        <lane id="-118/3_0" index="0" disallow="tram rail_urban rail rail_electric ship" speed="13.89" length="211.47" shape="26632.68,7067.49 26628.40,7067.57 26598.59,7068.10 26587.43,7077.61 26588.35,7187.69 26595.28,7199.09 26621.88,7198.91"/>
    </edge>
    <edge id="-12" from="900" to="684" priority="7" type="highway.secondary">
        <lane id="-12_0" index="0" disallow="tram rail_urban rail rail_electric ship" speed="27.78" length="232.11" shape="25109.10,7649.45 25113.28,7430.46"/>
        <lane id="-12_1" index="1" disallow="tram rail_urban rail rail_electric ship" speed="27.78" length="232.11" shape="25112.40,7649.52 25116.58,7430.52"/>
    </edge>
    <edge id="-125" from="2088" to="2069" priority="2" type="highway.service" shape="25904.79,7888.37 25902.85,7876.89 25900.71,7872.47 25896.51,7869.52 25887.94,7869.15 25883.81,7869.77 25881.92,7871.72 25877.91,7886.17">
        <lane id="-125_0" index="0" allow="delivery bicycle pedestrian" speed="5.56" length="45.53" shape="25900.98,7876.81 25899.41,7873.57 25895.96,7871.15 25888.03,7870.80 25884.61,7871.32 25883.39,7872.57 25882.29,7876.53"/>
    </edge>
    <edge id="-128/0" from="2069" to="2084" priority="2" type="highway.service">
        <lane id="-128/0_0" index="0" allow="delivery bicycle pedestrian" speed="5.56" length="43.12" shape="25881.56,7881.79 25868.49,7912.57"/>
    </edge>
    <edge id="-128/1" from="2088" to="2069" priority="2" type="highway.service" shape="25904.79,7888.37 25902.26,7883.41 25898.68,7881.56 25893.41,7880.57 25886.51,7880.70 25881.31,7882.72 25877.91,7886.17">
        <lane id="-128/1_0" index="0" allow="delivery bicycle pedestrian" speed="5.56" length="24.83" shape="25893.23,7882.22 25888.62,7882.31"/>
    </edge>
    <edge id="-128/2" from="2085" to="2088" priority="2" type="highway.service">
        <lane id="-128/2_0" index="0" allow="delivery bicycle pedestrian" speed="5.56" length="29.14" shape="25905.63,7912.49 25903.36,7890.63"/>
    </edge>
    <edge id="-130" from="2110" to="2109" priority="1" type="highway.track">
        <lane id="-130_0" index="0" disallow="tram rail_urban rail rail_electric ship" speed="5.56" length="45.90" shape="26429.70,7605.83 26383.82,7606.72"/>
    </edge>
    <edge id="-131" from="2116" to="2136" priority="4" type="highway.residential">
        <lane id="-131_0" index="0" disallow="tram rail_urban rail rail_electric ship" speed="13.89" length="102.30" shape="26298.65,8027.07 26299.51,7934.37"/>
    </edge>
    <edge id="-132" from="2134" to="2120" priority="4" type="highway.residential" shape="25294.11,8111.99 25293.67,8076.32 25293.31,8046.04">
        <lane id="-132_0" index="0" disallow="tram rail_urban rail rail_electric ship" speed="13.89" length="65.96" shape="25292.46,8112.01 25292.02,8076.34 25291.66,8046.06"/>
    </edge>
    <edge id="-133" from="2128" to="2142" priority="4" type="highway.residential">
        <lane id="-133_0" index="0" disallow="tram rail_urban rail rail_electric ship" speed="13.89" length="129.88" shape="25101.10,7936.89 25099.77,8057.11"/>
    </edge>
    <edge id="-134" from="2133" to="2140" priority="4" type="highway.residential" shape="26140.57,8054.38 26137.44,8053.47 26136.30,7926.45">
        <lane id="-134_0" index="0" disallow="tram rail_urban rail rail_electric ship" speed="13.89" length="130.28" shape="26140.11,8055.96 26135.81,8054.71 26134.70,7931.30"/>
    </edge>
    <edge id="-135/0" from="2142" to="2126" priority="4" type="highway.residential" shape="25098.06,8061.94 25106.67,8061.77 25106.34,8101.31">
        <lane id="-135/0_0" index="0" disallow="tram rail_urban rail rail_electric ship" speed="13.89" length="48.15" shape="25102.88,8060.19 25108.33,8060.09 25107.99,8101.33"/>
    </edge>
    <edge id="-135/1" from="2135" to="2142" priority="4" type="highway.residential">
        <lane id="-135/1_0" index="0" disallow="tram rail_urban rail rail_electric ship" speed="13.89" length="81.40" shape="25016.65,8061.05 25093.36,8060.33"/>
    </edge>
    <edge id="-136/0" from="2116" to="2115" priority="4" type="highway.residential">
        <lane id="-136/0_0" index="0" disallow="tram rail_urban rail rail_electric ship" speed="13.89" length="48.58" shape="26295.56,8033.57 26251.69,8033.71"/>
    </edge>
    <edge id="-136/1" from="2131" to="2116" priority="4" type="highway.residential" shape="26333.22,8060.32 26333.48,8031.49 26300.26,8031.90">
        <lane id="-136/1_0" index="0" disallow="tram rail_urban rail rail_electric ship" speed="13.89" length="62.06" shape="26331.57,8060.31 26331.82,8033.16 26305.10,8033.49"/>
    </edge>
    <edge id="-137" from="2122" to="2125" priority="2" type="highway.service" shape="25487.96,8186.53 25487.09,8085.62 25487.00,8038.13 25490.27,8018.65 25492.36,7998.57 25496.32,7989.15 25502.52,7981.07 25512.02,7973.20 25523.47,7965.57 25533.63,7962.90 25543.23,7963.17 25565.42,7967.68 25587.65,7971.45 25615.36,7976.12 25632.45,7978.18 25644.82,7977.83 25671.66,7973.66">
        <lane id="-137_0" index="0" allow="delivery bicycle pedestrian" speed="5.56" length="385.00" shape="25486.31,8186.54 25485.44,8085.63 25485.35,8038.13 25488.64,8018.38 25490.74,7998.16 25494.88,7988.32 25501.32,7979.92 25510.97,7971.92 25522.79,7964.04 25533.44,7961.24 25543.28,7961.53 25565.74,7966.07 25587.93,7969.82 25615.63,7974.49 25632.64,7976.54 25644.78,7976.18 25667.21,7972.68"/>
    </edge>
    <edge id="-139/0" from="2171" to="2162" priority="5" type="highway.unclassified" shape="25605.44,7825.89 25670.63,7825.31 25679.01,7825.57">
        <lane id="-139/0_0" index="0" disallow="tram rail_urban rail rail_electric ship" speed="13.89" length="73.58" shape="25610.17,7824.20 25670.61,7823.66 25674.20,7823.77"/>
    </edge>
    <edge id="-139/1" from="2190" to="2171" priority="5" type="highway.unclassified">
        <lane id="-139/1_0" index="0" disallow="tram rail_urban rail rail_electric ship" speed="13.89" length="27.07" shape="25583.05,7824.34 25600.66,7824.27"/>
    </edge>
    <edge id="-139/2" from="2161" to="2190" priority="5" type="highway.unclassified" shape="25452.21,7826.58 25483.03,7826.57 25578.37,7826.01">
        <lane id="-139/2_0" index="0" disallow="tram rail_urban rail rail_electric ship" speed="13.89" length="126.16" shape="25452.21,7824.93 25483.03,7824.92 25573.55,7824.39"/>
    </edge>
    <edge id="-14/0" from="722" to="711" priority="1" type="highway.cycleway" shape="24668.74,7121.64 24658.90,7115.68 24635.16,7121.42 24625.56,7127.75 24606.71,7158.00 24595.34,7163.49 24567.88,7160.51 24552.62,7148.51 24529.05,7118.22 24526.88,7113.51 24519.82,7098.20 24512.98,7064.94 24500.76,7027.40">
        <lane id="-14/0_0" index="0" allow="bicycle" speed="5.56" length="276.58" width="1.00" shape="24666.57,7120.96 24658.81,7116.27 24635.38,7121.93 24625.97,7128.14 24607.09,7158.42 24595.43,7164.05 24567.66,7161.04 24552.23,7148.90 24528.58,7118.51 24526.38,7113.74 24519.30,7098.37 24512.44,7065.05 24500.23,7027.57"/>
    </edge>
    <edge id="-14/1" from="754" to="722" priority="1" type="highway.cycleway" shape="24752.18,7184.69 24747.69,7181.59 24705.06,7171.00 24692.53,7163.34 24668.74,7121.64">
        <lane id="-14/1_0" index="0" allow="bicycle" speed="5.56" length="112.08" width="1.00" shape="24749.84,7183.75 24747.46,7182.10 24704.84,7171.51 24692.13,7163.74 24669.46,7124.02"/>
    </edge>
    <edge id="-14/2" from="729" to="754" priority="1" type="highway.cycleway" shape="24749.89,7272.39 24747.58,7243.83 24758.84,7209.49 24756.74,7192.83 24752.18,7184.69">
        <lane id="-14/2_0" index="0" allow="bicycle" speed="5.56" length="90.92" width="1.00" shape="24749.15,7270.11 24747.02,7243.77 24758.28,7209.44 24756.21,7193.01 24752.79,7186.89"/>
    </edge>
    <edge id="-14/3" from="731" to="729" priority="1" type="highway.cycleway" shape="24729.71,7325.65 24741.05,7311.34 24749.89,7272.39">
        <lane id="-14/3_0" index="0" allow="bicycle" speed="5.56" length="58.19" width="1.00" shape="24730.61,7323.63 24740.54,7311.09 24748.80,7274.68"/>
    </edge>
    <edge id="-14/4" from="738" to="731" priority="1" type="highway.cycleway" shape="24783.59,7390.88 24769.48,7392.04 24750.98,7395.04 24740.33,7392.61 24731.94,7385.37 24736.20,7362.39 24738.31,7348.59 24729.71,7325.65">
        <lane id="-14/4_0" index="0" allow="bicycle" speed="5.56" length="116.73" width="1.00" shape="24781.39,7391.62 24769.52,7392.59 24750.96,7395.60 24740.07,7393.11 24731.34,7385.58 24735.65,7362.29 24737.75,7348.65 24729.93,7327.80"/>
    </edge>
    <edge id="-14/5" from="740" to="738" priority="1" type="highway.cycleway" shape="24783.94,7434.02 24792.57,7397.74 24783.59,7390.88">
        <lane id="-14/5_0" index="0" allow="bicycle" speed="5.56" length="48.59" width="1.00" shape="24783.40,7433.89 24791.95,7397.96 24785.00,7392.65"/>
    </edge>
    <edge id="-140/0" from="1096" to="2176" priority="4" type="highway.residential">
        <lane id="-140/0_0" index="0" disallow="tram rail_urban rail rail_electric ship" speed="13.89" length="71.52" shape="25189.83,6923.14 25127.87,6922.94"/>
    </edge>
    <edge id="-140/1" from="2216" to="1096" priority="4" type="highway.residential">
        <lane id="-140/1_0" index="0" disallow="tram rail_urban rail rail_electric ship" speed="13.89" length="49.08" shape="25238.76,6923.80 25199.27,6923.23"/>
    </edge>
    <edge id="-140/2" from="2163" to="2216" priority="4" type="highway.residential" shape="25328.02,6927.15 25288.49,6924.53 25243.69,6922.22">
        <lane id="-140/2_0" index="0" disallow="tram rail_urban rail rail_electric ship" speed="13.89" length="84.47" shape="25322.92,6928.46 25288.38,6926.17 25248.08,6924.10"/>
    </edge>
    <edge id="-140/3" from="2169" to="2163" priority="4" type="highway.residential" shape="25418.35,6928.14 25366.97,6928.07 25360.63,6928.06 25328.02,6927.15">
        <lane id="-140/3_0" index="0" disallow="tram rail_urban rail rail_electric ship" speed="13.89" length="90.35" shape="25413.59,6929.78 25366.97,6929.72 25360.63,6929.71 25332.61,6928.93"/>
    </edge>
    <edge id="-141" from="2178" to="2166" priority="4" type="highway.residential">
        <lane id="-141_0" index="0" disallow="tram rail_urban rail rail_electric ship" speed="13.89" length="56.18" shape="25961.59,7742.96 25910.20,7743.14"/>
    </edge>
    <edge id="-142/0" from="2173" to="2212" priority="2" type="highway.service">
        <lane id="-142/0_0" index="0" allow="delivery bicycle pedestrian" speed="5.56" length="28.82" shape="25580.02,7695.78 25600.81,7695.55"/>
    </edge>
    <edge id="-142/1" from="2177" to="2173" priority="2" type="highway.service" shape="25575.67,7714.73 25491.08,7716.32 25490.86,7699.25 25575.25,7697.48">
        <lane id="-142/1_0" index="0" allow="delivery bicycle pedestrian" speed="5.56" length="186.07" shape="25570.93,7716.47 25489.45,7718.00 25489.19,7697.64 25570.48,7695.93"/>
    </edge>
    <edge id="-142/2" from="2164" to="2177" priority="2" type="highway.service">
        <lane id="-142/2_0" index="0" allow="delivery bicycle pedestrian" speed="5.56" length="28.63" shape="25599.55,7716.14 25580.48,7716.33"/>
    </edge>
    <edge id="-143/0" from="2220" to="2171" priority="5" type="highway.unclassified">
        <lane id="-143/0_0" index="0" disallow="tram rail_urban rail rail_electric ship" speed="13.89" length="48.32" shape="25606.61,7782.34 25607.04,7821.11"/>
    </edge>
    <edge id="-143/1" from="2168" to="2220" priority="5" type="highway.unclassified">
        <lane id="-143/1_0" index="0" disallow="tram rail_urban rail rail_electric ship" speed="13.89" length="19.20" shape="25606.35,7763.08 25606.49,7772.82"/>
    </edge>
    <edge id="-143/2" from="2197" to="2168" priority="5" type="highway.unclassified">
        <lane id="-143/2_0" index="0" disallow="tram rail_urban rail rail_electric ship" speed="13.89" length="15.38" shape="25606.20,7747.74 25606.24,7753.62"/>
    </edge>
    <edge id="-143/3" from="2164" to="2197" priority="5" type="highway.unclassified">
        <lane id="-143/3_0" index="0" disallow="tram rail_urban rail rail_electric ship" speed="13.89" length="28.55" shape="25605.98,7719.19 25606.13,7738.24"/>
    </edge>
    <edge id="-143/4" from="2212" to="2164" priority="5" type="highway.unclassified">
        <lane id="-143/4_0" index="0" disallow="tram rail_urban rail rail_electric ship" speed="13.89" length="17.29" shape="25605.76,7700.38 25605.88,7709.67"/>
    </edge>
    <edge id="-144" from="2163" to="820" priority="4" type="highway.residential" shape="25328.02,6927.15 25326.96,6774.52 25326.81,6752.00 25318.81,6752.05 25318.71,6725.80 25318.62,6705.74">
        <lane id="-144_0" index="0" disallow="tram rail_urban rail rail_electric ship" speed="13.89" length="229.45" shape="25326.33,6922.16 25325.31,6774.53 25325.17,6753.66 25317.16,6753.71 25317.06,6725.81 25316.97,6705.75"/>
    </edge>
    <edge id="-145" from="2181" to="2197" priority="5" type="highway.unclassified">
        <lane id="-145_0" index="0" disallow="tram rail_urban rail rail_electric ship" speed="13.89" length="74.04" shape="25673.79,7744.36 25609.29,7744.63"/>
    </edge>
    <edge id="-146" from="2185" to="2208" priority="4" type="highway.residential">
        <lane id="-146_0" index="0" disallow="tram rail_urban rail rail_electric ship" speed="13.89" length="34.94" shape="25940.61,7710.52 25910.47,7710.72"/>
    </edge>
    <edge id="-147/0" from="2179" to="2200" priority="4" type="highway.residential">
        <lane id="-147/0_0" index="0" disallow="tram rail_urban rail rail_electric ship" speed="13.89" length="88.96" shape="25773.12,7846.39 25773.97,7766.98"/>
    </edge>
    <edge id="-147/1" from="2165" to="2179" priority="4" type="highway.residential">
        <lane id="-147/1_0" index="0" disallow="tram rail_urban rail rail_electric ship" speed="13.89" length="29.51" shape="25772.76,7880.66 25773.02,7855.91"/>
    </edge>
    <edge id="-149" from="2203" to="2216" priority="4" type="highway.residential">
        <lane id="-149_0" index="0" disallow="tram rail_urban rail rail_electric ship" speed="13.89" length="93.35" shape="25242.14,6828.87 25245.17,6917.26"/>
    </edge>
    <edge id="-15" from="743" to="731" priority="1" type="highway.cycleway" shape="24665.15,7350.20 24693.07,7325.88 24707.12,7321.21 24729.71,7325.65">
        <lane id="-15_0" index="0" allow="bicycle" speed="5.56" length="74.85" width="1.00" shape="24664.79,7349.79 24692.79,7325.39 24707.08,7320.65 24727.72,7324.70"/>
    </edge>
    <edge id="-150" from="2182" to="2213" priority="4" type="highway.residential">
        <lane id="-150_0" index="0" disallow="tram rail_urban rail rail_electric ship" speed="13.89" length="162.71" shape="25743.09,7691.89 25900.97,7689.93"/>
    </edge>
    <edge id="-151/0" from="2184" to="2210" priority="4" type="highway.residential" shape="25905.26,7761.20 25904.83,7769.67 25905.95,7845.47">
        <lane id="-151/0_0" index="0" disallow="tram rail_urban rail rail_electric ship" speed="13.89" length="84.30" shape="25906.66,7766.22 25906.48,7769.76 25907.60,7845.45"/>
    </edge>
    <edge id="-151/1" from="2166" to="2184" priority="4" type="highway.residential">
        <lane id="-151/1_0" index="0" disallow="tram rail_urban rail rail_electric ship" speed="13.89" length="19.69" shape="25907.02,7746.23 25906.95,7756.51"/>
    </edge>
    <edge id="-151/2" from="2208" to="2166" priority="4" type="highway.residential">
        <lane id="-151/2_0" index="0" disallow="tram rail_urban rail rail_electric ship" speed="13.89" length="32.40" shape="25907.28,7713.82 25907.10,7736.73"/>
    </edge>
    <edge id="-151/3" from="2213" to="2208" priority="4" type="highway.residential">
        <lane id="-151/3_0" index="0" disallow="tram rail_urban rail rail_electric ship" speed="13.89" length="17.58" shape="25907.42,7696.35 25907.35,7704.32"/>
    </edge>
    <edge id="-151/4" from="2180" to="2213" priority="4" type="highway.residential" shape="25906.22,7653.03 25906.02,7664.90 25905.80,7691.52">
        <lane id="-151/4_0" index="0" disallow="tram rail_urban rail rail_electric ship" speed="13.89" length="38.49" shape="25907.78,7657.88 25907.67,7664.92 25907.49,7686.85"/>
    </edge>
    <edge id="-152" from="2187" to="2199" priority="2" type="highway.service" shape="25398.53,6917.82 25400.10,6814.11 25400.00,6780.40">
        <lane id="-152_0" index="0" allow="delivery bicycle pedestrian" speed="5.56" length="137.44" shape="25396.88,6917.80 25398.45,6814.09 25398.35,6780.40"/>
    </edge>
    <edge id="-153/0" from="2191" to="2190" priority="2" type="highway.service">
        <lane id="-153/0_0" index="0" allow="delivery bicycle pedestrian" speed="5.56" length="47.91" shape="25578.99,7782.84 25579.90,7821.17"/>
    </edge>
    <edge id="-153/1" from="2218" to="2191" priority="2" type="highway.service">
        <lane id="-153/1_0" index="0" allow="delivery bicycle pedestrian" speed="5.56" length="19.49" shape="25578.53,7763.39 25578.76,7773.32"/>
    </edge>
    <edge id="-153/2" from="2177" to="2218" priority="2" type="highway.service">
        <lane id="-153/2_0" index="0" allow="delivery bicycle pedestrian" speed="5.56" length="43.92" shape="25577.44,7719.49 25578.29,7753.84"/>
    </edge>
    <edge id="-153/3" from="2173" to="2177" priority="2" type="highway.service">
        <lane id="-153/3_0" index="0" allow="delivery bicycle pedestrian" speed="5.56" length="17.25" shape="25577.01,7702.23 25577.20,7709.92"/>
    </edge>
    <edge id="-154/0" from="2191" to="2220" priority="2" type="highway.service">
        <lane id="-154/0_0" index="0" allow="delivery bicycle pedestrian" speed="5.56" length="27.69" shape="25581.96,7776.38 25600.10,7776.02"/>
    </edge>
    <edge id="-154/1" from="2218" to="2191" priority="2" type="highway.service" shape="25576.76,7758.63 25490.01,7760.79 25490.38,7779.77 25577.23,7778.12">
        <lane id="-154/1_0" index="0" allow="delivery bicycle pedestrian" speed="5.56" length="192.63" shape="25572.05,7760.40 25491.69,7762.40 25491.99,7778.09 25572.43,7776.56"/>
    </edge>
    <edge id="-154/2" from="2168" to="2218" priority="2" type="highway.service">
        <lane id="-154/2_0" index="0" allow="delivery bicycle pedestrian" speed="5.56" length="27.87" shape="25599.90,7760.07 25581.58,7760.24"/>
    </edge>
    <edge id="-155/0" from="2179" to="2196" priority="4" type="highway.residential">
        <lane id="-155/0_0" index="0" disallow="tram rail_urban rail rail_electric ship" speed="13.89" length="85.79" shape="25779.50,7849.55 25860.53,7850.19"/>
    </edge>
    <edge id="-155/1" from="2188" to="2179" priority="4" type="highway.residential" shape="25687.48,7869.87 25716.49,7870.01 25716.39,7850.79 25774.72,7851.16">
        <lane id="-155/1_0" index="0" disallow="tram rail_urban rail rail_electric ship" speed="13.89" length="106.56" shape="25692.26,7868.24 25714.83,7868.35 25714.74,7849.13 25769.97,7849.48"/>
    </edge>
    <edge id="-156/0" from="2200" to="1011" priority="4" type="highway.residential" shape="25775.67,7762.21 25730.13,7762.27 25709.14,7762.72 25687.13,7762.89">
        <lane id="-156/0_0" index="0" disallow="tram rail_urban rail rail_electric ship" speed="13.89" length="88.55" shape="25770.89,7763.86 25730.13,7763.92 25709.17,7764.37 25691.88,7764.51"/>
    </edge>
    <edge id="-156/1" from="2184" to="2200" priority="4" type="highway.residential">
        <lane id="-156/1_0" index="0" disallow="tram rail_urban rail rail_electric ship" speed="13.89" length="129.59" shape="25900.33,7762.88 25780.38,7763.82"/>
    </edge>
    <edge id="-16/0" from="752" to="722" priority="1" type="highway.cycleway" shape="24785.35,7136.94 24785.39,7121.99 24781.52,7104.49 24769.85,7095.05 24731.04,7099.32 24713.64,7096.01 24692.39,7110.72 24680.94,7112.61 24668.74,7121.64">