<?xml version="1.0"?>
<!-- generated on 2018-01-16 09:36:10.747000 by $Id: randomTrips.py 18756 2015-08-31 19:16:33Z behrisch $
  options: -n input_net.net.xml -e 80 -p 0.2 <doubleminus>trip-attributes=departLane="best"
-->
<trips>
    <trip id="0" depart="0.00" from="2/2to2/1" to="2/3to1/3" departLane="best"/>
    <trip id="1" depart="0.20" from="1/2to0/2" to="1/1to0/1" departLane="best"/>
    <trip id="2" depart="0.40" from="3/0to2/0" to="2/1to2/2" departLane="best"/>
    <trip id="3" depart="0.60" from="1/3to1/2" to="0/2to0/1" departLane="best"/>
    <trip id="4" depart="0.80" from="1/3to2/3" to="2/3to1/3" departLane="best"/>
    <trip id="5" depart="1.00" from="3/0to3/1" to="1/3to1/2" departLane="best"/>
    <trip id="6" depart="1.20" from="2/3to1/3" to="2/1to2/0" departLane="best"/>
    <trip id="7" depart="1.40" from="2/1to2/2" to="2/3to3/3" departLane="best"/>
    <trip id="8" depart="1.60" from="3/0to3/1" to="1/2to2/2" departLane="best"/>
    <trip id="9" depart="1.80" from="2/2to3/2" to="2/2to2/3" departLane="best"/>
    <trip id="10" depart="2.00" from="3/2to2/2" to="2/1to2/0" departLane="best"/>
    <trip id="11" depart="2.20" from="0/2to0/1" to="1/2to1/3" departLane="best"/>
    <trip id="12" depart="2.40" from="2/2to2/3" to="0/2to1/2" departLane="best"/>
    <trip id="13" depart="2.60" from="3/3to2/3" to="3/2to3/3" departLane="best"/>
    <trip id="14" depart="2.80" from="2/0to1/0" to="1/1to1/2" departLane="best"/>
    <trip id="15" depart="3.00" from="3/2to3/1" to="2/2to2/3" departLane="best"/>
    <trip id="16" depart="3.20" from="3/2to2/2" to="0/2to1/2" departLane="best"/>
    <trip id="17" depart="3.40" from="1/2to0/2" to="2/0to2/1" departLane="best"/>
    <trip id="18" depart="3.60" from="1/3to2/3" to="3/1to2/1" departLane="best"/>
    <trip id="19" depart="3.80" from="0/2to0/3" to="2/3to1/3" departLane="best"/>
    <trip id="20" depart="4.00" from="1/1to2/1" to="2/0to1/0" departLane="best"/>
    <trip id="21" depart="4.20" from="2/3to2/2" to="1/1to1/0" departLane="best"/>
    <trip id="22" depart="4.40" from="0/2to0/1" to="0/1to0/0" departLane="best"/>
    <trip id="23" depart="4.60" from="3/2to3/1" to="1/0to2/0" departLane="best"/>
    <trip id="24" depart="4.80" from="1/2to0/2" to="0/1to0/0" departLane="best"/>
    <trip id="25" depart="5.00" from="2/3to2/2" to="3/2to3/1" departLane="best"/>
    <trip id="26" depart="5.20" from="3/1to2/1" to="1/0to1/1" departLane="best"/>
    <trip id="27" depart="5.40" from="1/1to1/2" to="0/1to0/0" departLane="best"/>
    <trip id="28" depart="5.60" from="2/2to1/2" to="1/3to0/3" departLane="best"/>
    <trip id="29" depart="5.80" from="2/3to1/3" to="1/2to1/3" departLane="best"/>
    <trip id="30" depart="6.00" from="0/1to0/0" to="2/3to1/3" departLane="best"/>
    <trip id="31" depart="6.20" from="3/3to3/2" to="2/1to2/0" departLane="best"/>
    <trip id="32" depart="6.40" from="0/1to1/1" to="1/1to2/1" departLane="best"/>
    <trip id="33" depart="6.60" from="2/2to2/3" to="2/0to1/0" departLane="best"/>
    <trip id="34" depart="6.80" from="2/1to3/1" to="1/0to2/0" departLane="best"/>
    <trip id="35" depart="7.00" from="1/1to1/2" to="3/2to3/1" departLane="best"/>
    <trip id="36" depart="7.20" from="2/0to1/0" to="0/2to0/1" departLane="best"/>
    <trip id="37" depart="7.40" from="0/0to1/0" to="2/2to3/2" departLane="best"/>
    <trip id="38" depart="7.60" from="2/2to2/3" to="0/3to0/2" departLane="best"/>
    <trip id="39" depart="7.80" from="1/1to0/1" to="2/0to2/1" departLane="best"/>
    <trip id="40" depart="8.00" from="1/2to1/1" to="1/3to0/3" departLane="best"/>
    <trip id="41" depart="8.20" from="0/3to0/2" to="3/2to2/2" departLane="best"/>
    <trip id="42" depart="8.40" from="0/3to0/2" to="1/2to0/2" departLane="best"/>
    <trip id="43" depart="8.60" from="1/0to1/1" to="1/0to0/0" departLane="best"/>
    <trip id="44" depart="8.80" from="2/2to1/2" to="1/3to1/2" departLane="best"/>
    <trip id="45" depart="9.00" from="3/2to2/2" to="2/1to3/1" departLane="best"/>
    <trip id="46" depart="9.20" from="2/2to2/1" to="0/3to1/3" departLane="best"/>
    <trip id="47" depart="9.40" from="2/2to2/3" to="3/0to2/0" departLane="best"/>
    <trip id="48" depart="9.60" from="0/2to0/1" to="2/2to1/2" departLane="best"/>
    <trip id="49" depart="9.80" from="0/0to1/0" to="1/1to1/2" departLane="best"/>
    <trip id="50" depart="10.00" from="3/1to2/1" to="1/0to1/1" departLane="best"/>
    <trip id="51" depart="10.20" from="3/2to2/2" to="2/0to3/0" departLane="best"/>
    <trip id="52" depart="10.40" from="3/3to3/2" to="3/2to3/3" departLane="best"/>
    <trip id="53" depart="10.60" from="2/1to1/1" to="1/0to2/0" departLane="best"/>
    <trip id="54" depart="10.80" from="0/2to1/2" to="2/2to2/3" departLane="best"/>
    <trip id="55" depart="11.00" from="1/2to2/2" to="2/0to2/1" departLane="best"/>
    <trip id="56" depart="11.20" from="3/1to2/1" to="1/0to2/0" departLane="best"/>
    <trip id="57" depart="11.40" from="3/2to3/3" to="0/2to1/2" departLane="best"/>
    <trip id="58" depart="11.60" from="3/2to3/1" to="2/2to2/3" departLane="best"/>
    <trip id="59" depart="11.80" from="1/3to0/3" to="0/2to0/3" departLane="best"/>
    <trip id="60" depart="12.00" from="0/3to1/3" to="1/2to1/3" departLane="best"/>
    <trip id="61" depart="12.20" from="0/1to0/0" to="0/0to0/1" departLane="best"/>
    <trip id="62" depart="12.40" from="3/2to3/3" to="0/2to0/3" departLane="best"/>
    <trip id="63" depart="12.60" from="0/0to1/0" to="2/1to1/1" departLane="best"/>
    <trip id="64" depart="12.80" from="1/3to0/3" to="1/0to2/0" departLane="best"/>
    <trip id="65" depart="13.00" from="3/1to2/1" to="1/3to1/2" departLane="best"/>
    <trip id="66" depart="13.20" from="3/3to3/2" to="2/3to1/3" departLane="best"/>
    <trip id="67" depart="13.40" from="1/3to2/3" to="2/0to3/0" departLane="best"/>
    <trip id="68" depart="13.60" from="3/2to3/1" to="0/0to0/1" departLane="best"/>
    <trip id="69" depart="13.80" from="3/1to3/2" to="0/3to1/3" departLane="best"/>
    <trip id="70" depart="14.00" from="1/3to1/2" to="0/1to0/0" departLane="best"/>
    <trip id="71" depart="14.20" from="3/0to2/0" to="2/2to1/2" departLane="best"/>
    <trip id="72" depart="14.40" from="0/2to1/2" to="0/0to1/0" departLane="best"/>
    <trip id="73" depart="14.60" from="0/3to1/3" to="2/0to3/0" departLane="best"/>
    <trip id="74" depart="14.80" from="3/0to3/1" to="0/3to1/3" departLane="best"/>
    <trip id="75" depart="15.00" from="2/0to3/0" to="3/2to3/1" departLane="best"/>
    <trip id="76" depart="15.20" from="0/1to0/0" to="0/2to1/2" departLane="best"/>
    <trip id="77" depart="15.40" from="1/1to1/2" to="3/0to3/1" departLane="best"/>
    <trip id="78" depart="15.60" from="2/2to2/3" to="0/2to0/3" departLane="best"/>
    <trip id="79" depart="15.80" from="2/0to3/0" to="1/1to1/2" departLane="best"/>
    <trip id="80" depart="16.00" from="0/0to0/1" to="3/3to2/3" departLane="best"/>
    <trip id="81" depart="16.20" from="2/0to2/1" to="0/3to0/2" departLane="best"/>
    <trip id="82" depart="16.40" from="3/0to2/0" to="1/3to2/3" departLane="best"/>
    <trip id="83" depart="16.60" from="2/3to1/3" to="0/0to1/0" departLane="best"/>
    <trip id="84" depart="16.80" from="0/1to0/2" to="1/0to0/0" departLane="best"/>
    <trip id="85" depart="17.00" from="1/2to1/3" to="2/1to3/1" departLane="best"/>
    <trip id="86" depart="17.20" from="2/2to1/2" to="1/0to1/1" departLane="best"/>
    <trip id="87" depart="17.40" from="3/2to3/3" to="2/2to3/2" departLane="best"/>
    <trip id="88" depart="17.60" from="0/2to0/1" to="3/0to3/1" departLane="best"/>
    <trip id="89" depart="17.80" from="0/2to1/2" to="0/2to0/3" departLane="best"/>
    <trip id="90" depart="18.00" from="3/1to3/2" to="2/1to3/1" departLane="best"/>
    <trip id="91" depart="18.20" from="3/0to2/0" to="2/2to1/2" departLane="best"/>
    <trip id="92" depart="18.40" from="3/1to2/1" to="0/2to0/3" departLane="best"/>
    <trip id="93" depart="18.60" from="0/2to1/2" to="3/0to3/1" departLane="best"/>
    <trip id="94" depart="18.80" from="2/2to2/3" to="3/1to2/1" departLane="best"/>
    <trip id="95" depart="19.00" from="2/2to3/2" to="3/1to2/1" departLane="best"/>
    <trip id="96" depart="19.20" from="2/3to1/3" to="1/2to1/1" departLane="best"/>
    <trip id="97" depart="19.40" from="3/1to2/1" to="0/2to0/1" departLane="best"/>
    <trip id="98" depart="19.60" from="3/2to3/3" to="2/1to2/0" departLane="best"/>
    <trip id="99" depart="19.80" from="3/3to3/2" to="2/0to1/0" departLane="best"/>
    <trip id="100" depart="20.00" from="2/0to2/1" to="2/0to3/0" departLane="best"/>
    <trip id="101" depart="20.20" from="1/0to2/0" to="0/2to0/1" departLane="best"/>
    <trip id="102" depart="20.40" from="1/2to1/3" to="1/3to2/3" departLane="best"/>
    <trip id="103" depart="20.60" from="1/3to1/2" to="3/2to3/3" departLane="best"/>
    <trip id="104" depart="20.80" from="1/1to0/1" to="3/0to3/1" departLane="best"/>
    <trip id="105" depart="21.00" from="2/2to2/3" to="2/1to2/0" departLane="best"/>
    <trip id="106" depart="21.20" from="0/0to1/0" to="0/0to0/1" departLane="best"/>
    <trip id="107" depart="21.40" from="2/1to2/0" to="0/2to0/1" departLane="best"/>
    <trip id="108" depart="21.60" from="3/1to3/2" to="2/3to2/2" departLane="best"/>
    <trip id="109" depart="21.80" from="2/0to2/1" to="1/1to2/1" departLane="best"/>
    <trip id="110" depart="22.00" from="3/2to3/3" to="0/3to0/2" departLane="best"/>
    <trip id="111" depart="22.20" from="0/1to0/0" to="0/3to1/3" departLane="best"/>
    <trip id="112" depart="22.40" from="3/3to3/2" to="2/1to1/1" departLane="best"/>
    <trip id="113" depart="22.60" from="2/2to2/3" to="0/2to1/2" departLane="best"/>
    <trip id="114" depart="22.80" from="0/3to0/2" to="3/0to2/0" departLane="best"/>
    <trip id="115" depart="23.00" from="3/2to3/1" to="3/2to2/2" departLane="best"/>
    <trip id="116" depart="23.20" from="0/1to0/0" to="2/2to1/2" departLane="best"/>
    <trip id="117" depart="23.40" from="0/3to0/2" to="0/1to1/1" departLane="best"/>
    <trip id="118" depart="23.60" from="0/2to0/3" to="1/2to1/3" departLane="best"/>
    <trip id="119" depart="23.80" from="2/2to3/2" to="3/0to2/0" departLane="best"/>
    <trip id="120" depart="24.00" from="3/1to2/1" to="2/1to2/0" departLane="best"/>
    <trip id="121" depart="24.20" from="2/0to1/0" to="0/3to0/2" departLane="best"/>
    <trip id="122" depart="24.40" from="1/2to2/2" to="2/3to1/3" departLane="best"/>
    <trip id="123" depart="24.60" from="1/1to1/2" to="3/3to2/3" departLane="best"/>
    <trip id="124" depart="24.80" from="2/2to1/2" to="1/2to1/3" departLane="best"/>
    <trip id="125" depart="25.00" from="0/0to1/0" to="2/3to1/3" departLane="best"/>
    <trip id="126" depart="25.20" from="1/0to2/0" to="0/2to0/1" departLane="best"/>
    <trip id="127" depart="25.40" from="1/0to1/1" to="3/1to3/0" departLane="best"/>
    <trip id="128" depart="25.60" from="1/0to0/0" to="1/3to2/3" departLane="best"/>
    <trip id="129" depart="25.80" from="2/2to2/3" to="1/1to0/1" departLane="best"/>
    <trip id="130" depart="26.00" from="1/1to2/1" to="3/0to3/1" departLane="best"/>
    <trip id="131" depart="26.20" from="1/1to0/1" to="0/3to0/2" departLane="best"/>
    <trip id="132" depart="26.40" from="1/3to1/2" to="2/0to2/1" departLane="best"/>
    <trip id="133" depart="26.60" from="3/2to2/2" to="2/2to3/2" departLane="best"/>
    <trip id="134" depart="26.80" from="0/3to0/2" to="0/3to1/3" departLane="best"/>
    <trip id="135" depart="27.00" from="3/2to2/2" to="1/3to1/2" departLane="best"/>
    <trip id="136" depart="27.20" from="2/0to2/1" to="0/3to1/3" departLane="best"/>
    <trip id="137" depart="27.40" from="0/3to0/2" to="3/1to3/2" departLane="best"/>
    <trip id="138" depart="27.60" from="3/1to2/1" to="0/2to0/3" departLane="best"/>
    <trip id="139" depart="27.80" from="2/1to3/1" to="3/3to3/2" departLane="best"/>
    <trip id="140" depart="28.00" from="2/2to2/1" to="2/0to1/0" departLane="best"/>
    <trip id="141" depart="28.20" from="1/3to2/3" to="3/0to3/1" departLane="best"/>
    <trip id="142" depart="28.40" from="1/2to0/2" to="0/0to1/0" departLane="best"/>
    <trip id="143" depart="28.60" from="2/2to2/1" to="0/0to1/0" departLane="best"/>
    <trip id="144" depart="28.80" from="2/1to2/2" to="1/2to0/2" departLane="best"/>
    <trip id="145" depart="29.00" from="0/0to0/1" to="1/2to1/1" departLane="best"/>
    <trip id="146" depart="29.20" from="1/0to0/0" to="1/2to1/1" departLane="best"/>
    <trip id="147" depart="29.40" from="2/3to2/2" to="3/2to3/3" departLane="best"/>
    <trip id="148" depart="29.60" from="1/0to0/0" to="0/2to0/1" departLane="best"/>
    <trip id="149" depart="29.80" from="0/1to0/2" to="1/3to0/3" departLane="best"/>
    <trip id="150" depart="30.00" from="2/2to2/3" to="1/1to1/0" departLane="best"/>
    <trip id="151" depart="30.20" from="0/3to0/2" to="1/0to0/0" departLane="best"/>
    <trip id="152" depart="30.40" from="1/0to1/1" to="3/3to3/2" departLane="best"/>
    <trip id="153" depart="30.60" from="3/0to3/1" to="2/1to1/1" departLane="best"/>
    <trip id="154" depart="30.80" from="2/1to2/0" to="1/3to0/3" departLane="best"/>
    <trip id="155" depart="31.00" from="0/1to0/0" to="3/0to2/0" departLane="best"/>
    <trip id="156" depart="31.20" from="0/3to1/3" to="2/1to2/2" departLane="best"/>
    <trip id="157" depart="31.40" from="1/1to0/1" to="3/1to3/0" departLane="best"/>
    <trip id="158" depart="31.60" from="2/3to3/3" to="2/2to2/3" departLane="best"/>
    <trip id="159" depart="31.80" from="1/0to2/0" to="1/2to1/1" departLane="best"/>
    <trip id="160" depart="32.00" from="2/1to2/2" to="0/0to0/1" departLane="best"/>
    <trip id="161" depart="32.20" from="2/0to1/0" to="2/3to3/3" departLane="best"/>
    <trip id="162" depart="32.40" from="1/0to1/1" to="0/1to1/1" departLane="best"/>
    <trip id="163" depart="32.60" from="1/3to0/3" to="2/2to3/2" departLane="best"/>
    <trip id="164" depart="32.80" from="0/2to1/2" to="2/0to2/1" departLane="best"/>
    <trip id="165" depart="33.00" from="3/2to3/1" to="2/2to1/2" departLane="best"/>
    <trip id="166" depart="33.20" from="0/1to0/0" to="3/3to2/3" departLane="best"/>
    <trip id="167" depart="33.40" from="0/3to0/2" to="3/2to3/1" departLane="best"/>
    <trip id="168" depart="33.60" from="3/0to2/0" to="2/3to2/2" departLane="best"/>
    <trip id="169" depart="33.80" from="2/0to1/0" to="1/0to2/0" departLane="best"/>
    <trip id="170" depart="34.00" from="2/1to2/0" to="0/3to0/2" departLane="best"/>
    <trip id="171" depart="34.20" from="3/1to2/1" to="1/2to0/2" departLane="best"/>
    <trip id="172" depart="34.40" from="3/0to2/0" to="2/2to2/3" departLane="best"/>
    <trip id="173" depart="34.60" from="0/3to1/3" to="1/0to0/0" departLane="best"/>
    <trip id="174" depart="34.80" from="1/3to0/3" to="2/1to1/1" departLane="best"/>
    <trip id="175" depart="35.00" from="1/1to1/2" to="3/0to2/0" departLane="best"/>
    <trip id="176" depart="35.20" from="0/3to1/3" to="1/3to2/3" departLane="best"/>
    <trip id="177" depart="35.40" from="1/0to0/0" to="3/0to3/1" departLane="best"/>
    <trip id="178" depart="35.60" from="2/0to1/0" to="3/0to2/0" departLane="best"/>
    <trip id="179" depart="35.80" from="2/0to3/0" to="2/3to3/3" departLane="best"/>
    <trip id="180" depart="36.00" from="2/0to1/0" to="3/1to3/0" departLane="best"/>
    <trip id="181" depart="36.20" from="1/2to0/2" to="2/0to1/0" departLane="best"/>
    <trip id="182" depart="36.40" from="2/0to2/1" to="0/3to0/2" departLane="best"/>
    <trip id="183" depart="36.60" from="0/1to0/0" to="3/2to3/3" departLane="best"/>
    <trip id="184" depart="36.80" from="3/3to2/3" to="2/3to1/3" departLane="best"/>
    <trip id="185" depart="37.00" from="2/2to2/1" to="1/1to1/2" departLane="best"/>
    <trip id="186" depart="37.20" from="0/1to0/2" to="0/1to0/0" departLane="best"/>
    <trip id="187" depart="37.40" from="0/1to0/2" to="3/0to2/0" departLane="best"/>
    <trip id="188" depart="37.60" from="2/0to1/0" to="2/2to2/1" departLane="best"/>
    <trip id="189" depart="37.80" from="1/0to0/0" to="3/2to2/2" departLane="best"/>
    <trip id="190" depart="38.00" from="3/2to3/1" to="2/0to1/0" departLane="best"/>
    <trip id="191" depart="38.20" from="2/0to3/0" to="1/0to2/0" departLane="best"/>
    <trip id="192" depart="38.40" from="0/2to1/2" to="0/0to0/1" departLane="best"/>
    <trip id="193" depart="38.60" from="2/2to1/2" to="1/0to1/1" departLane="best"/>
    <trip id="194" depart="38.80" from="3/1to3/0" to="2/1to3/1" departLane="best"/>
    <trip id="195" depart="39.00" from="3/2to3/1" to="2/3to2/2" departLane="best"/>
    <trip id="196" depart="39.20" from="2/3to2/2" to="2/2to1/2" departLane="best"/>
    <trip id="197" depart="39.40" from="0/0to1/0" to="0/1to1/1" departLane="best"/>
    <trip id="198" depart="39.60" from="1/0to2/0" to="1/3to1/2" departLane="best"/>
    <trip id="199" depart="39.80" from="3/1to3/2" to="2/2to2/3" departLane="best"/>
    <trip id="200" depart="40.00" from="0/2to0/3" to="2/1to1/1" departLane="best"/>
    <trip id="201" depart="40.20" from="1/3to2/3" to="2/1to2/0" departLane="best"/>
    <trip id="202" depart="40.40" from="2/1to2/2" to="1/2to0/2" departLane="best"/>
    <trip id="203" depart="40.60" from="0/2to0/1" to="1/2to2/2" departLane="best"/>
    <trip id="204" depart="40.80" from="1/2to1/1" to="3/3to3/2" departLane="best"/>
    <trip id="205" depart="41.00" from="3/1to3/0" to="3/2to2/2" departLane="best"/>
    <trip id="206" depart="41.20" from="1/3to0/3" to="1/0to1/1" departLane="best"/>
    <trip id="207" depart="41.40" from="0/3to0/2" to="2/0to3/0" departLane="best"/>
    <trip id="208" depart="41.60" from="1/0to2/0" to="1/0to0/0" departLane="best"/>
    <trip id="209" depart="41.80" from="1/1to2/1" to="3/3to2/3" departLane="best"/>
    <trip id="210" depart="42.00" from="0/2to0/1" to="2/3to3/3" departLane="best"/>
    <trip id="211" depart="42.20" from="1/0to2/0" to="0/0to1/0" departLane="best"/>
    <trip id="212" depart="42.40" from="0/2to0/3" to="2/2to2/3" departLane="best"/>
    <trip id="213" depart="42.60" from="2/2to2/1" to="1/3to1/2" departLane="best"/>
    <trip id="214" depart="42.80" from="1/1to0/1" to="1/1to2/1" departLane="best"/>
    <trip id="215" depart="43.00" from="2/0to1/0" to="0/2to1/2" departLane="best"/>
    <trip id="216" depart="43.20" from="1/0to0/0" to="2/0to1/0" departLane="best"/>
    <trip id="217" depart="43.40" from="1/1to1/2" to="3/3to3/2" departLane="best"/>
    <trip id="218" depart="43.60" from="2/1to1/1" to="3/3to2/3" departLane="best"/>
    <trip id="219" depart="43.80" from="0/2to1/2" to="3/0to2/0" departLane="best"/>
    <trip id="220" depart="44.00" from="1/1to1/2" to="0/1to0/0" departLane="best"/>
    <trip id="221" depart="44.20" from="0/2to0/1" to="1/2to1/3" departLane="best"/>
    <trip id="222" depart="44.40" from="3/2to3/1" to="0/1to1/1" departLane="best"/>
    <trip id="223" depart="44.60" from="2/1to2/2" to="2/0to3/0" departLane="best"/>
    <trip id="224" depart="44.80" from="3/3to2/3" to="2/2to3/2" departLane="best"/>
    <trip id="225" depart="45.00" from="1/3to0/3" to="0/2to0/3" departLane="best"/>
    <trip id="226" depart="45.20" from="1/2to2/2" to="3/1to3/2" departLane="best"/>
    <trip id="227" depart="45.40" from="2/3to1/3" to="1/1to2/1" departLane="best"/>
    <trip id="228" depart="45.60" from="3/0to3/1" to="0/3to1/3" departLane="best"/>
    <trip id="229" depart="45.80" from="1/1to1/2" to="1/0to0/0" departLane="best"/>
    <trip id="230" depart="46.00" from="2/3to1/3" to="3/3to2/3" departLane="best"/>
    <trip id="231" depart="46.20" from="3/0to2/0" to="2/2to1/2" departLane="best"/>
    <trip id="232" depart="46.40" from="3/3to2/3" to="0/2to1/2" departLane="best"/>
    <trip id="233" depart="46.60" from="1/2to1/3" to="2/1to3/1" departLane="best"/>
    <trip id="234" depart="46.80" from="1/3to0/3" to="3/1to3/2" departLane="best"/>
    <trip id="235" depart="47.00" from="1/1to0/1" to="1/3to0/3" departLane="best"/>
    <trip id="236" depart="47.20" from="3/1to2/1" to="2/2to2/3" departLane="best"/>
    <trip id="237" depart="47.40" from="1/1to0/1" to="2/1to1/1" departLane="best"/>
    <trip id="238" depart="47.60" from="0/2to0/1" to="2/1to3/1" departLane="best"/>
    <trip id="239" depart="47.80" from="2/1to2/0" to="1/2to2/2" departLane="best"/>
    <trip id="240" depart="48.00" from="0/2to0/3" to="3/2to3/3" departLane="best"/>
    <trip id="241" depart="48.20" from="1/1to2/1" to="3/0to3/1" departLane="best"/>
    <trip id="242" depart="48.40" from="3/2to3/3" to="2/2to1/2" departLane="best"/>
    <trip id="243" depart="48.60" from="1/3to1/2" to="0/3to0/2" departLane="best"/>
    <trip id="244" depart="48.80" from="2/3to1/3" to="2/1to3/1" departLane="best"/>
    <trip id="245" depart="49.00" from="2/0to3/0" to="1/0to2/0" departLane="best"/>
    <trip id="246" depart="49.20" from="1/2to1/3" to="3/2to3/3" departLane="best"/>
    <trip id="247" depart="49.40" from="0/2to1/2" to="0/0to1/0" departLane="best"/>
    <trip id="248" depart="49.60" from="0/3to1/3" to="1/3to2/3" departLane="best"/>
    <trip id="249" depart="49.80" from="3/0to3/1" to="3/0to2/0" departLane="best"/>
    <trip id="250" depart="50.00" from="1/2to1/1" to="1/3to2/3" departLane="best"/>
    <trip id="251" depart="50.20" from="1/1to2/1" to="0/2to0/1" departLane="best"/>
    <trip id="252" depart="50.40" from="2/1to2/2" to="0/2to0/1" departLane="best"/>
    <trip id="253" depart="50.60" from="0/0to0/1" to="3/1to3/2" departLane="best"/>
    <trip id="254" depart="50.80" from="0/2to1/2" to="0/1to0/0" departLane="best"/>
    <trip id="255" depart="51.00" from="1/1to0/1" to="2/2to2/1" departLane="best"/>
    <trip id="256" depart="51.20" from="2/2to2/3" to="0/2to1/2" departLane="best"/>
    <trip id="257" depart="51.40" from="0/3to0/2" to="1/3to2/3" departLane="best"/>
    <trip id="258" depart="51.60" from="2/2to2/3" to="3/3to3/2" departLane="best"/>
    <trip id="259" depart="51.80" from="1/2to2/2" to="2/1to2/0" departLane="best"/>
    <trip id="260" depart="52.00" from="1/0to1/1" to="2/1to2/0" departLane="best"/>
    <trip id="261" depart="52.20" from="1/0to2/0" to="1/2to1/3" departLane="best"/>
    <trip id="262" depart="52.40" from="0/2to0/3" to="3/3to2/3" departLane="best"/>
    <trip id="263" depart="52.60" from="2/2to3/2" to="2/0to1/0" departLane="best"/>
    <trip id="264" depart="52.80" from="3/1to3/0" to="1/0to0/0" departLane="best"/>
    <trip id="265" depart="53.00" from="2/2to2/1" to="3/0to2/0" departLane="best"/>
    <trip id="266" depart="53.20" from="3/1to2/1" to="3/1to2/1" departLane="best"/>
    <trip id="267" depart="53.40" from="2/3to1/3" to="1/2to1/1" departLane="best"/>
    <trip id="268" depart="53.60" from="2/2to2/1" to="3/1to2/1" departLane="best"/>
    <trip id="269" depart="53.80" from="3/3to3/2" to="0/3to0/2" departLane="best"/>
    <trip id="270" depart="54.00" from="2/3to1/3" to="1/1to1/2" departLane="best"/>
    <trip id="271" depart="54.20" from="1/3to2/3" to="0/1to1/1" departLane="best"/>
    <trip id="272" depart="54.40" from="3/2to3/3" to="0/1to0/2" departLane="best"/>
    <trip id="273" depart="54.60" from="3/2to3/3" to="1/2to0/2" departLane="best"/>
    <trip id="274" depart="54.80" from="3/2to2/2" to="0/1to0/0" departLane="best"/>
    <trip id="275" depart="55.00" from="2/1to2/0" to="1/0to2/0" departLane="best"/>
    <trip id="276" depart="55.20" from="3/2to2/2" to="1/1to0/1" departLane="best"/>
    <trip id="277" depart="55.40" from="2/2to2/1" to="1/0to0/0" departLane="best"/>
    <trip id="278" depart="55.60" from="2/2to2/1" to="2/1to1/1" departLane="best"/>
    <trip id="279" depart="55.80" from="2/0to3/0" to="1/2to0/2" departLane="best"/>
    <trip id="280" depart="56.00" from="3/0to2/0" to="0/1to0/2" departLane="best"/>
    <trip id="281" depart="56.20" from="0/3to0/2" to="0/1to0/0" departLane="best"/>
    <trip id="282" depart="56.40" from="0/0to1/0" to="2/1to2/2" departLane="best"/>
    <trip id="283" depart="56.60" from="0/2to0/3" to="3/2to2/2" departLane="best"/>
    <trip id="284" depart="56.80" from="1/1to0/1" to="0/3to0/2" departLane="best"/>
    <trip id="285" depart="57.00" from="0/2to0/3" to="1/1to2/1" departLane="best"/>
    <trip id="286" depart="57.20" from="3/0to3/1" to="2/1to2/2" departLane="best"/>
    <trip id="287" depart="57.40" from="0/1to0/2" to="3/2to3/3" departLane="best"/>
    <trip id="288" depart="57.60" from="1/2to2/2" to="2/3to1/3" departLane="best"/>
    <trip id="289" depart="57.80" from="2/1to1/1" to="2/0to1/0" departLane="best"/>
    <trip id="290" depart="58.00" from="2/0to2/1" to="1/1to1/2" departLane="best"/>
    <trip id="291" depart="58.20" from="2/3to3/3" to="1/1to2/1" departLane="best"/>
    <trip id="292" depart="58.40" from="2/2to2/3" to="2/1to2/2" departLane="best"/>
    <trip id="293" depart="58.60" from="2/2to2/3" to="2/1to1/1" departLane="best"/>
    <trip id="294" depart="58.80" from="3/2to2/2" to="2/0to3/0" departLane="best"/>
    <trip id="295" depart="59.00" from="1/0to0/0" to="2/2to1/2" departLane="best"/>
    <trip id="296" depart="59.20" from="1/2to1/1" to="1/2to1/1" departLane="best"/>
    <trip id="297" depart="59.40" from="2/1to2/2" to="2/3to2/2" departLane="best"/>
    <trip id="298" depart="59.60" from="1/0to1/1" to="0/1to0/0" departLane="best"/>
    <trip id="299" depart="59.80" from="1/1to1/2" to="0/1to0/0" departLane="best"/>
    <trip id="300" depart="60.00" from="0/0to1/0" to="0/1to0/0" departLane="best"/>
    <trip id="301" depart="60.20" from="0/1to0/2" to="1/0to2/0" departLane="best"/>
    <trip id="302" depart="60.40" from="3/1to3/2" to="2/1to2/0" departLane="best"/>
    <trip id="303" depart="60.60" from="3/0to3/1" to="3/1to3/2" departLane="best"/>
    <trip id="304" depart="60.80" from="2/1to2/0" to="3/1to2/1" departLane="best"/>
    <trip id="305" depart="61.00" from="0/2to1/2" to="0/2to0/1" departLane="best"/>
    <trip id="306" depart="61.20" from="1/2to0/2" to="2/2to2/1" departLane="best"/>
    <trip id="307" depart="61.40" from="0/1to0/0" to="0/1to0/0" departLane="best"/>
    <trip id="308" depart="61.60" from="2/2to2/3" to="1/3to2/3" departLane="best"/>
    <trip id="309" depart="61.80" from="0/1to1/1" to="2/3to2/2" departLane="best"/>
    <trip id="310" depart="62.00" from="2/2to1/2" to="1/1to1/0" departLane="best"/>
    <trip id="311" depart="62.20" from="0/1to0/0" to="1/2to1/1" departLane="best"/>
    <trip id="312" depart="62.40" from="1/2to2/2" to="3/0to2/0" departLane="best"/>
    <trip id="313" depart="62.60" from="2/3to2/2" to="3/2to2/2" departLane="best"/>
    <trip id="314" depart="62.80" from="1/2to0/2" to="1/2to0/2" departLane="best"/>
    <trip id="315" depart="63.00" from="3/1to3/2" to="2/2to3/2" departLane="best"/>
    <trip id="316" depart="63.20" from="0/2to0/1" to="2/3to1/3" departLane="best"/>
    <trip id="317" depart="63.40" from="0/1to0/2" to="1/3to0/3" departLane="best"/>
    <trip id="318" depart="63.60" from="3/2to3/3" to="3/1to2/1" departLane="best"/>
    <trip id="319" depart="63.80" from="1/3to0/3" to="3/2to2/2" departLane="best"/>
    <trip id="320" depart="64.00" from="2/3to2/2" to="2/2to3/2" departLane="best"/>
    <trip id="321" depart="64.20" from="1/2to1/1" to="2/3to3/3" departLane="best"/>
    <trip id="322" depart="64.40" from="0/1to1/1" to="3/1to3/2" departLane="best"/>
    <trip id="323" depart="64.60" from="2/3to2/2" to="2/1to2/2" departLane="best"/>
    <trip id="324" depart="64.80" from="2/0to1/0" to="3/1to2/1" departLane="best"/>
    <trip id="325" depart="65.00" from="1/1to1/2" to="0/3to1/3" departLane="best"/>
    <trip id="326" depart="65.20" from="2/2to3/2" to="2/0to1/0" departLane="best"/>
    <trip id="327" depart="65.40" from="2/1to3/1" to="3/2to3/1" departLane="best"/>
    <trip id="328" depart="65.60" from="0/2to0/1" to="2/3to1/3" departLane="best"/>
    <trip id="329" depart="65.80" from="0/1to0/2" to="2/2to1/2" departLane="best"/>
    <trip id="330" depart="66.00" from="0/2to0/3" to="1/1to0/1" departLane="best"/>
    <trip id="331" depart="66.20" from="2/1to1/1" to="2/3to3/3" departLane="best"/>
    <trip id="332" depart="66.40" from="1/0to2/0" to="1/1to2/1" departLane="best"/>
    <trip id="333" depart="66.60" from="0/1to1/1" to="0/1to0/2" departLane="best"/>
    <trip id="334" depart="66.80" from="3/3to3/2" to="2/0to2/1" departLane="best"/>
    <trip id="335" depart="67.00" from="0/3to1/3" to="1/0to0/0" departLane="best"/>
    <trip id="336" depart="67.20" from="0/1to0/0" to="1/3to0/3" departLane="best"/>
    <trip id="337" depart="67.40" from="1/0to2/0" to="0/0to1/0" departLane="best"/>
    <trip id="338" depart="67.60" from="3/3to3/2" to="1/3to1/2" departLane="best"/>
    <trip id="339" depart="67.80" from="0/0to1/0" to="1/1to0/1" departLane="best"/>
    <trip id="340" depart="68.00" from="3/1to2/1" to="1/1to1/2" departLane="best"/>
    <trip id="341" depart="68.20" from="0/1to0/0" to="0/2to1/2" departLane="best"/>
    <trip id="342" depart="68.40" from="0/2to0/1" to="3/3to3/2" departLane="best"/>
    <trip id="343" depart="68.60" from="2/3to3/3" to="2/2to3/2" departLane="best"/>
    <trip id="344" depart="68.80" from="1/2to2/2" to="1/2to2/2" departLane="best"/>
    <trip id="345" depart="69.00" from="1/0to1/1" to="1/3to2/3" departLane="best"/>
    <trip id="346" depart="69.20" from="3/3to2/3" to="0/1to0/2" departLane="best"/>
    <trip id="347" depart="69.40" from="3/3to3/2" to="0/0to0/1" departLane="best"/>
    <trip id="348" depart="69.60" from="2/2to1/2" to="3/3to2/3" departLane="best"/>
    <trip id="349" depart="69.80" from="0/3to0/2" to="2/2to1/2" departLane="best"/>
    <trip id="350" depart="70.00" from="2/2to3/2" to="2/3to3/3" departLane="best"/>
    <trip id="351" depart="70.20" from="1/1to1/0" to="2/1to2/0" departLane="best"/>
    <trip id="352" depart="70.40" from="3/3to2/3" to="2/3to2/2" departLane="best"/>
    <trip id="353" depart="70.60" from="2/1to3/1" to="2/3to2/2" departLane="best"/>
    <trip id="354" depart="70.80" from="0/2to0/1" to="2/2to2/1" departLane="best"/>
    <trip id="355" depart="71.00" from="3/1to2/1" to="0/2to0/3" departLane="best"/>