<?xml version="1.0" encoding="UTF-8"?>

<!-- generated on 05/12/18 12:34:55 by SUMO netconvert Version 0.24.0
<?xml version="1.0" encoding="UTF-8"?>

<configuration xmlns:xsi="http://www.w3.org/2001/XMLSchema-instance" xsi:noNamespaceSchemaLocation="http://sumo.dlr.de/xsd/netconvertConfiguration.xsd">

    <input>
        <type-files value="F:\Tools\sumo-0.24.0/data/typemap/osmNetconvert.typ.xml"/>
        <osm-files value="target.osm"/>
    </input>

    <output>
        <output-file value="input_net.net.xml"/>
    </output>

    <projection>
        <proj.utm value="true"/>
    </projection>

    <processing>
        <no-internal-links value="true"/>
    </processing>

</configuration>
-->

<net version="0.13" xmlns:xsi="http://www.w3.org/2001/XMLSchema-instance" xsi:noNamespaceSchemaLocation="http://sumo.dlr.de/xsd/net_file.xsd">

    <location netOffset="-429238.28,-4409773.51" convBoundary="0.00,0.00,30795.52,12412.79" origBoundary="116.171930,39.836229,116.532787,39.948378" projParameter="+proj=utm +zone=50 +ellps=WGS84 +datum=WGS84 +units=m +no_defs"/>

    <type id="highway.bridleway" priority="1" numLanes="1" speed="2.78" allow="pedestrian" oneway="1" width="2.00"/>
    <type id="highway.bus_guideway" priority="1" numLanes="1" speed="8.33" allow="bus" oneway="1"/>
    <type id="highway.cycleway" priority="1" numLanes="1" speed="5.56" allow="bicycle" oneway="0" width="1.00"/>
    <type id="highway.footway" priority="1" numLanes="1" speed="8.33" allow="pedestrian" oneway="1" width="2.00"/>
    <type id="highway.ford" priority="1" numLanes="1" speed="2.78" allow="army" oneway="0"/>
    <type id="highway.living_street" priority="3" numLanes="1" speed="2.78" disallow="tram rail_urban rail rail_electric ship" oneway="0"/>
    <type id="highway.motorway" priority="13" numLanes="2" speed="44.44" allow="private emergency authority army vip passenger hov taxi bus coach delivery truck trailer motorcycle evehicle custom1 custom2" oneway="1"/>
    <type id="highway.motorway_link" priority="12" numLanes="1" speed="22.22" allow="private emergency authority army vip passenger hov taxi bus coach delivery truck trailer motorcycle evehicle custom1 custom2" oneway="1"/>
    <type id="highway.path" priority="1" numLanes="1" speed="2.78" allow="bicycle pedestrian" oneway="1" width="2.00"/>
    <type id="highway.pedestrian" priority="1" numLanes="1" speed="8.33" allow="pedestrian" oneway="1" width="2.00"/>
    <type id="highway.primary" priority="9" numLanes="2" speed="27.78" disallow="tram rail_urban rail rail_electric ship" oneway="0"/>
    <type id="highway.primary_link" priority="8" numLanes="1" speed="22.22" disallow="tram rail_urban rail rail_electric ship" oneway="0"/>
    <type id="highway.raceway" priority="14" numLanes="2" speed="83.33" allow="vip" oneway="0"/>
    <type id="highway.residential" priority="4" numLanes="1" speed="13.89" disallow="tram rail_urban rail rail_electric ship" oneway="0"/>
    <type id="highway.secondary" priority="7" numLanes="2" speed="27.78" disallow="tram rail_urban rail rail_electric ship" oneway="0"/>
    <type id="highway.secondary_link" priority="6" numLanes="1" speed="22.22" disallow="tram rail_urban rail rail_electric ship" oneway="0"/>
    <type id="highway.service" priority="2" numLanes="1" speed="5.56" allow="delivery bicycle pedestrian" oneway="0"/>
    <type id="highway.services" priority="1" numLanes="1" speed="8.33" disallow="tram rail_urban rail rail_electric ship" oneway="0"/>
    <type id="highway.stairs" priority="1" numLanes="1" speed="1.39" allow="pedestrian" oneway="1" width="2.00"/>
    <type id="highway.step" priority="1" numLanes="1" speed="1.39" allow="pedestrian" oneway="1" width="2.00"/>
    <type id="highway.steps" priority="1" numLanes="1" speed="1.39" allow="pedestrian" oneway="1" width="2.00"/>
    <type id="highway.tertiary" priority="6" numLanes="1" speed="22.22" disallow="tram rail_urban rail rail_electric ship" oneway="0"/>
    <type id="highway.tertiary_link" priority="5" numLanes="1" speed="22.22" disallow="tram rail_urban rail rail_electric ship" oneway="0"/>
    <type id="highway.track" priority="1" numLanes="1" speed="5.56" disallow="tram rail_urban rail rail_electric ship" oneway="0"/>
    <type id="highway.trunk" priority="11" numLanes="2" speed="27.78" disallow="tram rail_urban rail rail_electric bicycle pedestrian ship" oneway="0"/>
    <type id="highway.trunk_link" priority="10" numLanes="1" speed="22.22" disallow="tram rail_urban rail rail_electric bicycle pedestrian ship" oneway="0"/>
    <type id="highway.unclassified" priority="5" numLanes="1" speed="13.89" disallow="tram rail_urban rail rail_electric ship" oneway="0"/>
    <type id="highway.unsurfaced" priority="1" numLanes="1" speed="8.33" disallow="tram rail_urban rail rail_electric ship" oneway="0"/>
    <type id="railway.light_rail" priority="15" numLanes="1" speed="27.78" allow="rail_urban" oneway="1"/>
    <type id="railway.preserved" priority="15" numLanes="1" speed="27.78" allow="rail" oneway="1"/>
    <type id="railway.rail" priority="15" numLanes="1" speed="83.33" allow="rail rail_electric" oneway="1"/>
    <type id="railway.subway" priority="15" numLanes="1" speed="27.78" allow="rail_urban" oneway="1"/>
    <type id="railway.tram" priority="15" numLanes="1" speed="13.89" allow="tram" oneway="1"/>

    <edge id="-100#0" from="3981" to="3980" priority="2" type="highway.service">
        <lane id="-100#0_0" index="0" allow="delivery bicycle pedestrian" speed="5.56" length="51.21" shape="19134.08,6730.67 19094.11,6719.37"/>
    </edge>
    <edge id="-100#1" from="3982" to="3981" priority="2" type="highway.service">
        <lane id="-100#1_0" index="0" allow="delivery bicycle pedestrian" speed="5.56" length="89.46" shape="19222.92,6741.37 19144.21,6732.60"/>
    </edge>
    <edge id="-100#2" from="4669" to="3982" priority="2" type="highway.service" shape="19401.79,6701.97 19359.71,6721.85 19273.58,6737.96 19228.01,6740.27">
        <lane id="-100#2_0" index="0" allow="delivery bicycle pedestrian" speed="5.56" length="179.79" shape="19398.18,6705.50 19360.22,6723.43 19273.88,6739.58 19233.20,6741.66"/>
    </edge>
    <edge id="-101#0" from="4669" to="3985" priority="2" type="highway.service" shape="19401.79,6701.97 19417.90,6736.58 19425.35,6765.68">
        <lane id="-101#0_0" index="0" allow="delivery bicycle pedestrian" speed="5.56" length="68.21" shape="19406.15,6707.42 19419.46,6736.03 19425.73,6760.52"/>
    </edge>
    <edge id="-101#1" from="4188" to="4669" priority="2" type="highway.service" shape="19386.60,6655.33 19388.88,6666.92 19401.79,6701.97">
        <lane id="-101#1_0" index="0" allow="delivery bicycle pedestrian" speed="5.56" length="49.17" shape="19389.24,6660.21 19390.49,6666.60 19401.79,6697.21"/>
    </edge>
    <edge id="-101#2" from="3989" to="4188" priority="2" type="highway.service" shape="19375.55,6589.71 19379.70,6617.56 19383.58,6643.56 19386.60,6655.33">
        <lane id="-101#2_0" index="0" allow="delivery bicycle pedestrian" speed="5.56" length="66.59" shape="19378.06,6595.35 19381.34,6617.31 19385.21,6643.31 19387.09,6650.61"/>
    </edge>
    <edge id="-1014" from="7901" to="7900" priority="2" type="highway.service" shape="18111.41,7710.87 18102.99,7698.38 18098.48,7693.41 18090.64,7690.49 18038.27,7689.55 18032.87,7689.97 18027.30,7693.71 18021.60,7710.75">
        <lane id="-1014_0" index="0" allow="delivery bicycle pedestrian" speed="5.56" length="112.61" shape="18105.84,7705.56 18101.62,7699.31 18097.53,7694.82 18090.33,7692.13 18038.24,7691.20 18033.43,7691.58 18028.69,7694.77 18025.06,7705.62"/>
    </edge>
    <edge id="-1019#0" from="19172" to="4199" priority="6" type="highway.tertiary">
        <lane id="-1019#0_0" index="0" disallow="tram rail_urban rail rail_electric ship" speed="22.22" length="13.87" shape="18213.53,7221.95 18213.73,7221.96"/>
    </edge>
    <edge id="-1019#1" from="19233" to="19172" priority="6" type="highway.tertiary">
        <lane id="-1019#1_0" index="0" disallow="tram rail_urban rail rail_electric ship" speed="22.22" length="16.99" shape="18198.28,7221.39 18209.86,7221.82"/>
    </edge>
    <edge id="-1019#2" from="9733" to="19233" priority="6" type="highway.tertiary">
        <lane id="-1019#2_0" index="0" disallow="tram rail_urban rail rail_electric ship" speed="22.22" length="47.55" shape="18149.48,7219.60 18185.74,7220.93"/>
    </edge>
    <edge id="-1019#3" from="4208" to="9733" priority="6" type="highway.tertiary">
        <lane id="-1019#3_0" index="0" disallow="tram rail_urban rail rail_electric ship" speed="22.22" length="150.02" shape="18004.63,7214.66 18143.51,7219.40"/>
    </edge>
    <edge id="-1019#4" from="7916" to="4208" priority="6" type="highway.tertiary">
        <lane id="-1019#4_0" index="0" disallow="tram rail_urban rail rail_electric ship" speed="22.22" length="22.47" shape="17977.79,7213.69 17994.47,7214.30"/>
    </edge>
    <edge id="-1019#5" from="19235" to="7916" priority="6" type="highway.tertiary">
        <lane id="-1019#5_0" index="0" disallow="tram rail_urban rail rail_electric ship" speed="22.22" length="23.97" shape="17955.75,7212.96 17972.78,7213.41"/>
    </edge>
    <edge id="-1019#6" from="4200" to="19235" priority="6" type="highway.tertiary">
        <lane id="-1019#6_0" index="0" disallow="tram rail_urban rail rail_electric ship" speed="22.22" length="46.53" shape="17912.33,7211.80 17950.76,7212.82"/>
    </edge>
    <edge id="-102#0" from="4544" to="3990" priority="2" type="highway.service" shape="19668.32,6408.43 19675.03,6443.53 19682.06,6507.08 19686.35,6599.92">
        <lane id="-102#0_0" index="0" allow="delivery bicycle pedestrian" speed="5.56" length="192.61" shape="19670.93,6413.33 19676.65,6443.22 19683.70,6506.89 19687.62,6591.72"/>
    </edge>
    <edge id="-102#1" from="3994" to="4544" priority="2" type="highway.service" shape="19640.03,6258.84 19647.61,6293.87 19668.32,6408.43">
        <lane id="-102#1_0" index="0" allow="delivery bicycle pedestrian" speed="5.56" length="152.25" shape="19642.89,6264.23 19649.22,6293.53 19669.01,6403.02"/>
    </edge>
    <edge id="-1022#0" from="19176" to="3280" priority="6" type="highway.tertiary" shape="18226.45,7258.49 18226.48,7262.42 18242.50,7283.44">
        <lane id="-1022#0_0" index="0" disallow="tram rail_urban rail rail_electric ship" speed="22.22" length="30.36" shape="18228.12,7261.15 18228.12,7261.86 18241.41,7279.28"/>
    </edge>
    <edge id="-1022#1" from="4199" to="19176" priority="6" type="highway.tertiary">
        <lane id="-1022#1_0" index="0" disallow="tram rail_urban rail rail_electric ship" speed="22.22" length="34.43" shape="18227.94,7226.98 18228.08,7255.70"/>
    </edge>
    <edge id="-1022#2" from="19170" to="4199" priority="6" type="highway.tertiary">
        <lane id="-1022#2_0" index="0" disallow="tram rail_urban rail rail_electric ship" speed="22.22" length="21.52" shape="18227.62,7205.36 18227.87,7220.91"/>
    </edge>
    <edge id="-1022#3" from="19237" to="19170" priority="6" type="highway.tertiary">
        <lane id="-1022#3_0" index="0" disallow="tram rail_urban rail rail_electric ship" speed="22.22" length="31.07" shape="18227.17,7176.51 18227.54,7199.93"/>
    </edge>
    <edge id="-1022#4" from="4271" to="19237" priority="6" type="highway.tertiary" shape="18227.02,7109.49 18225.36,7166.79 18225.44,7171.48">
        <lane id="-1022#4_0" index="0" disallow="tram rail_urban rail rail_electric ship" speed="22.22" length="62.01" shape="18228.58,7112.85 18227.01,7166.83 18227.02,7166.98"/>
    </edge>
    <edge id="-1022#5" from="11606" to="4271" priority="6" type="highway.tertiary">
        <lane id="-1022#5_0" index="0" disallow="tram rail_urban rail rail_electric ship" speed="22.22" length="74.11" shape="18234.77,7040.28 18228.95,7106.37"/>
    </edge>
    <edge id="-1022#6" from="19151" to="11606" priority="6" type="highway.tertiary">
        <lane id="-1022#6_0" index="0" disallow="tram rail_urban rail rail_electric ship" speed="22.22" length="53.39" shape="18236.66,6984.97 18235.31,7030.88"/>
    </edge>
    <edge id="-1022#7" from="7063" to="19151" priority="6" type="highway.tertiary">
        <lane id="-1022#7_0" index="0" disallow="tram rail_urban rail rail_electric ship" speed="22.22" length="16.16" shape="18237.13,6969.28 18236.81,6979.82"/>
    </edge>
    <edge id="-1022#8" from="3284" to="7063" priority="6" type="highway.tertiary">
        <lane id="-1022#8_0" index="0" disallow="tram rail_urban rail rail_electric ship" speed="22.22" length="14.47" shape="18237.57,6956.52 18237.33,6963.06"/>
    </edge>
    <edge id="-1022#9" from="5477" to="3284" priority="6" type="highway.tertiary">
        <lane id="-1022#9_0" index="0" disallow="tram rail_urban rail rail_electric ship" speed="22.22" length="12.69" shape="18238.36,6944.04 18238.13,6946.90"/>
    </edge>
    <edge id="-103#0" from="4017" to="3995" priority="2" type="highway.service">
        <lane id="-103#0_0" index="0" allow="delivery bicycle pedestrian" speed="5.56" length="50.59" shape="19491.43,6298.05 19455.21,6316.01"/>
    </edge>
    <edge id="-103#1" from="4656" to="4017" priority="2" type="highway.service" shape="19531.71,6277.37 19503.02,6290.46 19495.39,6294.24">
        <lane id="-103#1_0" index="0" allow="delivery bicycle pedestrian" speed="5.56" length="40.06" shape="19527.85,6280.94 19503.71,6291.96 19500.00,6293.80"/>
    </edge>
    <edge id="-103#2" from="3997" to="4656" priority="2" type="highway.service">
        <lane id="-103#2_0" index="0" allow="delivery bicycle pedestrian" speed="5.56" length="32.79" shape="19557.51,6267.40 19536.51,6276.99"/>
    </edge>
    <edge id="-1031" from="3403" to="7130" priority="5" type="highway.tertiary_link">
        <lane id="-1031_0" index="0" disallow="tram rail_urban rail rail_electric ship" speed="22.22" length="14.87" shape="16722.81,7368.52 16717.68,7367.20"/>
    </edge>
    <edge id="-104#0" from="4543" to="4002" priority="2" type="highway.service" shape="19630.81,6410.30 19638.38,6449.63 19647.68,6523.39 19648.91,6602.71">
        <lane id="-104#0_0" index="0" allow="delivery bicycle pedestrian" speed="5.56" length="193.72" shape="19633.42,6415.13 19640.00,6449.32 19649.31,6523.18 19650.43,6594.27"/>
    </edge>
    <edge id="-104#1" from="3999" to="4543" priority="2" type="highway.service" shape="19603.85,6278.82 19622.40,6364.95 19630.81,6410.30">
        <lane id="-104#1_0" index="0" allow="delivery bicycle pedestrian" speed="5.56" length="134.23" shape="19606.28,6282.30 19624.02,6364.60 19631.50,6404.97"/>
    </edge>
    <edge id="-1041#0" from="15888" to="5052" priority="4" type="highway.residential">
        <lane id="-1041#0_0" index="0" disallow="tram rail_urban rail rail_electric ship" speed="13.89" length="154.74" shape="17199.20,5882.78 17056.48,5900.35"/>
    </edge>
    <edge id="-1041#1" from="5053" to="15888" priority="4" type="highway.residential">
        <lane id="-1041#1_0" index="0" disallow="tram rail_urban rail rail_electric ship" speed="13.89" length="9.77" shape="17208.64,5881.62 17208.44,5881.64"/>
    </edge>
    <edge id="-1041#2" from="5496" to="5053" priority="4" type="highway.residential" shape="17210.84,5761.74 17209.32,5812.44 17213.21,5879.40">
        <lane id="-1041#2_0" index="0" disallow="tram rail_urban rail rail_electric ship" speed="13.89" length="117.80" shape="17212.35,5766.64 17210.97,5812.49 17214.59,5874.76"/>
    </edge>
    <edge id="-1041#3" from="5054" to="5496" priority="4" type="highway.residential">
        <lane id="-1041#3_0" index="0" disallow="tram rail_urban rail rail_electric ship" speed="13.89" length="12.49" shape="17212.98,5752.66 17212.74,5757.26"/>
    </edge>
    <edge id="-1044" from="3279" to="3714" priority="7" type="highway.secondary">
        <lane id="-1044_0" index="0" disallow="tram rail_urban rail rail_electric ship" speed="27.78" length="10.85" shape="18909.04,6929.68 18909.01,6929.48"/>
        <lane id="-1044_1" index="1" disallow="tram rail_urban rail rail_electric ship" speed="27.78" length="10.85" shape="18912.31,6929.22 18912.28,6929.02"/>
    </edge>
    <edge id="-1047#0" from="12101" to="4630" priority="2" type="highway.service" shape="18550.19,6834.25 18513.63,6842.69 18478.00,6851.40 18409.76,6853.25 18335.63,6851.60 18246.29,6848.52">
        <lane id="-1047#0_0" index="0" allow="delivery bicycle pedestrian" speed="5.56" length="306.01" shape="18547.35,6836.60 18514.00,6844.30 18478.22,6853.05 18409.80,6854.90 18335.60,6853.25 18248.53,6850.25"/>
    </edge>
    <edge id="-1047#1" from="4635" to="12101" priority="2" type="highway.service">
        <lane id="-1047#1_0" index="0" allow="delivery bicycle pedestrian" speed="5.56" length="13.61" shape="18558.15,6834.11 18554.15,6835.03"/>
    </edge>
    <edge id="-1048" from="5801" to="5754" priority="4" type="highway.residential" shape="19007.19,6147.69 18969.64,6160.17 18972.06,6206.15">
        <lane id="-1048_0" index="0" disallow="tram rail_urban rail rail_electric ship" speed="13.89" length="85.61" shape="19002.72,6150.92 18971.36,6161.33 18973.71,6206.06"/>
    </edge>
    <edge id="-1049#0" from="6040" to="7988" priority="4" type="highway.residential">
        <lane id="-1049#0_0" index="0" disallow="tram rail_urban rail rail_electric ship" speed="13.89" length="83.47" shape="18916.10,6130.09 18843.20,6128.99"/>
    </edge>
    <edge id="-1049#1" from="6063" to="6040" priority="4" type="highway.residential" shape="18970.18,6107.87 18946.94,6106.29 18948.75,6128.65 18921.40,6128.52">
        <lane id="-1049#1_0" index="0" disallow="tram rail_urban rail rail_electric ship" speed="13.89" length="73.08" shape="18970.06,6109.52 18948.74,6108.06 18950.54,6130.31 18925.66,6130.19"/>
    </edge>
    <edge id="-105#0" from="4542" to="4006" priority="2" type="highway.service" shape="19594.33,6413.17 19603.25,6464.48 19611.92,6552.86 19612.12,6606.99">
        <lane id="-105#0_0" index="0" allow="delivery bicycle pedestrian" speed="5.56" length="195.01" shape="19596.83,6417.88 19604.88,6464.20 19613.56,6552.70 19613.74,6598.53"/>
    </edge>
    <edge id="-105#1" from="4009" to="4542" priority="2" type="highway.service">
        <lane id="-105#1_0" index="0" allow="delivery bicycle pedestrian" speed="5.56" length="118.00" shape="19574.34,6300.50 19595.02,6407.98"/>
    </edge>
    <edge id="-105#2" from="3997" to="4009" priority="2" type="highway.service">
        <lane id="-105#2_0" index="0" allow="delivery bicycle pedestrian" speed="5.56" length="35.15" shape="19565.10,6269.59 19571.79,6290.95"/>
    </edge>
    <edge id="-1055#0" from="5076" to="3462" priority="6" type="highway.tertiary" shape="18241.51,8094.41 18237.05,8188.46 18231.18,8311.76 18218.93,8550.94">
        <lane id="-1055#0_0" index="0" disallow="tram rail_urban rail rail_electric ship" speed="22.22" length="457.08" shape="18242.94,8099.10 18238.69,8188.54 18232.83,8311.84 18220.58,8551.02"/>
    </edge>
    <edge id="-1055#1" from="5080" to="5076" priority="6" type="highway.tertiary">
        <lane id="-1055#1_0" index="0" disallow="tram rail_urban rail rail_electric ship" speed="22.22" length="253.60" shape="18248.58,7845.68 18243.26,8089.64"/>
    </edge>
    <edge id="-1055#2" from="5082" to="5080" priority="6" type="highway.tertiary">
        <lane id="-1055#2_0" index="0" disallow="tram rail_urban rail rail_electric ship" speed="22.22" length="19.18" shape="18249.70,7826.66 18249.00,7836.43"/>
    </edge>
    <edge id="-1055#3" from="15730" to="5082" priority="6" type="highway.tertiary">
        <lane id="-1055#3_0" index="0" disallow="tram rail_urban rail rail_electric ship" speed="22.22" length="45.94" shape="18251.40,7778.33 18250.19,7817.23"/>
    </edge>
    <edge id="-1055#4" from="9149" to="15730" priority="6" type="highway.tertiary">
        <lane id="-1055#4_0" index="0" disallow="tram rail_urban rail rail_electric ship" speed="22.22" length="35.63" shape="18249.60,7745.22 18251.30,7772.87"/>
    </edge>
    <edge id="-1055#5" from="3722" to="9149" priority="6" type="highway.tertiary">
        <lane id="-1055#5_0" index="0" disallow="tram rail_urban rail rail_electric ship" speed="22.22" length="34.77" shape="18235.47,7713.26 18245.80,7733.14"/>
    </edge>
    <edge id="-1056#0" from="7171" to="3302" priority="6" type="highway.tertiary">
        <lane id="-1056#0_0" index="0" disallow="tram rail_urban rail rail_electric ship" speed="22.22" length="72.27" shape="19511.55,7859.35 19509.52,7799.74"/>
    </edge>
    <edge id="-1056#1" from="4604" to="7171" priority="6" type="highway.tertiary">
        <lane id="-1056#1_0" index="0" disallow="tram rail_urban rail rail_electric ship" speed="22.22" length="105.96" shape="19518.68,7968.11 19511.78,7864.33"/>
    </edge>
    <edge id="-1056#2" from="4602" to="4604" priority="6" type="highway.tertiary">
        <lane id="-1056#2_0" index="0" disallow="tram rail_urban rail rail_electric ship" speed="22.22" length="19.64" shape="19518.97,7982.78 19518.69,7968.31"/>
    </edge>
    <edge id="-1056#3" from="3307" to="4602" priority="6" type="highway.tertiary" shape="19526.13,8345.87 19530.81,8238.47 19530.99,8185.46 19529.79,8119.55 19520.71,7987.77">
        <lane id="-1056#3_0" index="0" disallow="tram rail_urban rail rail_electric ship" speed="22.22" length="358.52" shape="19524.48,8345.79 19529.16,8238.40 19529.34,8185.45 19528.14,8119.58 19519.37,7992.22"/>
    </edge>
    <edge id="-1056#4" from="3309" to="3307" priority="6" type="highway.tertiary" shape="19518.73,8598.25 19524.76,8388.51 19526.13,8345.87">
        <lane id="-1056#4_0" index="0" disallow="tram rail_urban rail rail_electric ship" speed="22.22" length="252.49" shape="19517.08,8598.20 19523.11,8388.46 19524.48,8345.80"/>
    </edge>
    <edge id="-1059#0" from="5992" to="7385" priority="5" type="highway.unclassified" shape="20701.71,6818.15 20641.58,6821.57 20629.39,6820.23 20554.25,6817.35">
        <lane id="-1059#0_0" index="0" disallow="tram rail_urban rail rail_electric ship" speed="13.89" length="147.69" shape="20697.39,6820.05 20641.67,6823.22 20629.21,6821.87 20557.18,6819.11"/>
    </edge>
    <edge id="-1059#1" from="4445" to="5992" priority="5" type="highway.unclassified" shape="21277.31,6776.54 21154.36,6791.83 21067.20,6786.14 21028.33,6819.76 20985.20,6839.35 20908.58,6841.84 20731.09,6833.02 20701.71,6818.15">
        <lane id="-1059#1_0" index="0" disallow="tram rail_urban rail rail_electric ship" speed="13.89" length="597.30" shape="21277.52,6778.18 21154.40,6793.48 21067.77,6787.83 21029.23,6821.16 20985.58,6840.99 20908.63,6843.49 20730.66,6834.65 20704.19,6821.26"/>
    </edge>
    <edge id="-106#0" from="4659" to="4012" priority="2" type="highway.service" shape="19560.59,6417.39 19549.38,6418.79 19525.95,6426.25">
        <lane id="-106#0_0" index="0" allow="delivery bicycle pedestrian" speed="5.56" length="35.89" shape="19555.73,6419.66 19549.74,6420.41 19531.31,6426.28"/>
    </edge>
    <edge id="-106#1" from="4542" to="4659" priority="2" type="highway.service">
        <lane id="-106#1_0" index="0" allow="delivery bicycle pedestrian" speed="5.56" length="34.01" shape="19589.61,6415.43 19565.47,6418.45"/>
    </edge>
    <edge id="-106#2" from="4543" to="4542" priority="2" type="highway.service">
        <lane id="-106#2_0" index="0" allow="delivery bicycle pedestrian" speed="5.56" length="36.59" shape="19625.85,6412.34 19599.52,6414.42"/>
    </edge>
    <edge id="-106#3" from="4544" to="4543" priority="2" type="highway.service">
        <lane id="-106#3_0" index="0" allow="delivery bicycle pedestrian" speed="5.56" length="37.55" shape="19663.21,6410.33 19636.13,6411.68"/>
    </edge>
    <edge id="-106#4" from="4014" to="4544" priority="2" type="highway.service">
        <lane id="-106#4_0" index="0" allow="delivery bicycle pedestrian" speed="5.56" length="37.91" shape="19700.89,6409.09 19673.67,6409.91"/>
    </edge>
    <edge id="-1066#0" from="3552" to="5901" priority="6" type="highway.tertiary">
        <lane id="-1066#0_0" index="0" disallow="tram rail_urban rail rail_electric ship" speed="22.22" length="120.24" shape="20394.09,6588.58 20507.96,6583.97"/>
    </edge>
    <edge id="-1066#1" from="3550" to="3552" priority="6" type="highway.tertiary">
        <lane id="-1066#1_0" index="0" disallow="tram rail_urban rail rail_electric ship" speed="22.22" length="36.76" shape="20359.76,6593.55 20387.35,6589.28"/>
    </edge>
    <edge id="-1066#2" from="3670" to="3550" priority="6" type="highway.tertiary" shape="20245.81,6590.58 20284.75,6598.07 20354.87,6595.97">
        <lane id="-1066#2_0" index="0" disallow="tram rail_urban rail rail_electric ship" speed="22.22" length="109.80" shape="20250.23,6589.75 20284.89,6596.41 20350.09,6594.46"/>
    </edge>
    <edge id="-1066#3" from="6021" to="3670" priority="6" type="highway.tertiary" shape="20126.61,6591.20 20223.17,6590.82 20245.81,6590.58">
        <lane id="-1066#3_0" index="0" disallow="tram rail_urban rail rail_electric ship" speed="22.22" length="119.21" shape="20131.42,6589.53 20223.16,6589.17 20241.08,6588.98"/>
    </edge>
    <edge id="-1066#4" from="6013" to="6021" priority="6" type="highway.tertiary">
        <lane id="-1066#4_0" index="0" disallow="tram rail_urban rail rail_electric ship" speed="22.22" length="94.34" shape="20036.81,6593.21 20121.97,6589.74"/>
    </edge>
    <edge id="-1066#5" from="7383" to="6013" priority="6" type="highway.tertiary">
        <lane id="-1066#5_0" index="0" disallow="tram rail_urban rail rail_electric ship" speed="22.22" length="60.69" shape="19974.88,6593.77 20027.47,6593.43"/>
    </edge>
    <edge id="-107#0" from="4012" to="4662" priority="2" type="highway.service" shape="19525.95,6426.25 19537.25,6524.86 19540.44,6562.84 19539.32,6609.99">
        <lane id="-107#0_0" index="0" allow="delivery bicycle pedestrian" speed="5.56" length="184.53" shape="19528.06,6430.21 19538.89,6524.67 19542.08,6562.71 19540.97,6610.03"/>
    </edge>
    <edge id="-107#1" from="4017" to="4012" priority="2" type="highway.service" shape="19495.39,6294.24 19508.45,6333.54 19514.57,6371.52 19525.95,6426.25">
        <lane id="-107#1_0" index="0" allow="delivery bicycle pedestrian" speed="5.56" length="135.79" shape="19498.60,6298.69 19510.01,6333.02 19516.20,6371.26 19526.52,6420.92"/>
    </edge>
    <edge id="-108#0" from="3980" to="4018" priority="2" type="highway.service">
        <lane id="-108#0_0" index="0" allow="delivery bicycle pedestrian" speed="5.56" length="60.70" shape="19090.33,6721.61 19079.00,6771.21"/>
    </edge>
    <edge id="-108#1" from="10411" to="3980" priority="2" type="highway.service" shape="19132.02,6558.32 19126.98,6568.55 19089.82,6716.44">
        <lane id="-108#1_0" index="0" allow="delivery bicycle pedestrian" speed="5.56" length="163.89" shape="19131.19,6563.74 19128.53,6569.12 19092.56,6712.33"/>
    </edge>
    <edge id="-108#2" from="5916" to="10411" priority="2" type="highway.service" shape="19295.64,6491.67 19269.64,6490.20 19191.13,6491.74 19178.59,6495.84 19164.00,6509.09 19148.69,6524.55 19132.02,6558.32">
        <lane id="-108#2_0" index="0" allow="delivery bicycle pedestrian" speed="5.56" length="196.89" shape="19290.96,6493.05 19269.55,6491.85 19191.41,6493.38 19179.43,6497.30 19165.11,6510.31 19150.06,6525.52 19135.88,6554.23"/>
    </edge>
    <edge id="-1085" from="8049" to="8064" priority="2" type="highway.service">
        <lane id="-1085_0" index="0" allow="delivery bicycle pedestrian" speed="5.56" length="60.22" shape="20159.55,5725.83 20168.92,5775.25"/>
    </edge>
    <edge id="-1086" from="8048" to="8058" priority="4" type="highway.residential">
        <lane id="-1086_0" index="0" disallow="tram rail_urban rail rail_electric ship" speed="13.89" length="38.53" shape="20715.15,7309.39 20702.79,7281.21"/>
    </edge>
    <edge id="-1087" from="8050" to="8059" priority="2" type="highway.service">
        <lane id="-1087_0" index="0" allow="delivery bicycle pedestrian" speed="5.56" length="61.94" shape="20318.92,5808.28 20298.39,5760.94"/>
    </edge>
    <edge id="-1088" from="3298" to="3291" priority="2" type="highway.service">
        <lane id="-1088_0" index="0" allow="delivery bicycle pedestrian" speed="5.56" length="327.83" shape="17897.15,7316.18 17579.01,7317.92"/>
    </edge>
    <edge id="-109#0" from="10410" to="4026" priority="2" type="highway.service" shape="19095.90,6546.24 19076.94,6609.04 19039.47,6765.47">
        <lane id="-109#0_0" index="0" allow="delivery bicycle pedestrian" speed="5.56" length="226.45" shape="19096.08,6551.35 19078.52,6609.52 19042.18,6761.25"/>
    </edge>
    <edge id="-109#1" from="4034" to="10410" priority="2" type="highway.service" shape="19277.57,6423.85 19239.45,6428.26 19217.59,6437.02 19175.67,6455.41 19142.82,6478.29 19115.74,6507.69 19100.90,6536.20 19095.90,6546.24">
        <lane id="-109#1_0" index="0" allow="delivery bicycle pedestrian" speed="5.56" length="231.06" shape="19272.92,6426.05 19239.86,6429.87 19218.20,6438.55 19176.48,6456.86 19143.92,6479.54 19117.10,6508.64 19102.36,6536.96 19099.71,6542.28"/>
    </edge>
    <edge id="-1097#0" from="5864" to="5846" priority="4" type="highway.residential">
        <lane id="-1097#0_0" index="0" disallow="tram rail_urban rail rail_electric ship" speed="13.89" length="42.52" shape="20125.61,6531.54 20124.01,6498.51"/>
    </edge>
    <edge id="-1097#1" from="6021" to="5864" priority="4" type="highway.residential">
        <lane id="-1097#1_0" index="0" disallow="tram rail_urban rail rail_electric ship" speed="13.89" length="54.87" shape="20125.03,6586.36 20125.76,6541.14"/>
    </edge>
    <edge id="-110#0" from="8159" to="3995" priority="2" type="highway.service">
        <lane id="-110#0_0" index="0" allow="delivery bicycle pedestrian" speed="5.56" length="46.42" shape="19412.05,6333.98 19444.70,6317.57"/>
    </edge>
    <edge id="-110#1" from="4675" to="8159" priority="2" type="highway.service" shape="19390.34,6343.87 19403.55,6340.10 19408.59,6337.57">