<?xml version="1.0" encoding="UTF-8"?>

<!-- generated on 12/19/18 22:10:24 by SUMO netgenerate Version 0.24.0
<?xml version="1.0" encoding="UTF-8"?>

<configuration xmlns:xsi="http://www.w3.org/2001/XMLSchema-instance" xsi:noNamespaceSchemaLocation="http://sumo.dlr.de/xsd/netgenerateConfiguration.xsd">

    <grid_network>
        <grid value="true"/>
        <grid.number value="6"/>
        <grid.length value="500"/>
    </grid_network>

    <output>
        <output-file value="input_net.net.xml"/>
    </output>

    <processing>
        <no-internal-links value="true"/>
    </processing>

    <building_defaults>
        <default.lanenumber value="4"/>
    </building_defaults>

</configuration>
-->

<net version="0.13" xmlns:xsi="http://www.w3.org/2001/XMLSchema-instance" xsi:noNamespaceSchemaLocation="http://sumo.dlr.de/xsd/net_file.xsd">

    <location netOffset="0.00,0.00" convBoundary="0.00,0.00,2500.00,2500.00" origBoundary="0.00,0.00,2500.00,2500.00" projParameter="!"/>

    <edge id="0/0to0/1" from="0/0" to="0/1" priority="-1">
        <lane id="0/0to0/1_0" index="0" speed="30.00" length="500.00" shape="11.55,13.15 11.55,485.35"/>
        <lane id="0/0to0/1_1" index="1" speed="30.00" length="500.00" shape="8.25,13.15 8.25,485.35"/>
        <lane id="0/0to0/1_2" index="2" speed="30.00" length="500.00" shape="4.95,13.15 4.95,485.35"/>
        <lane id="0/0to0/1_3" index="3" speed="30.00" length="500.00" shape="1.65,13.15 1.65,485.35"/>
    </edge>
    <edge id="0/0to1/0" from="0/0" to="1/0" priority="-1">
        <lane id="0/0to1/0_0" index="0" speed="30.00" length="500.00" shape="13.15,-11.55 485.35,-11.55"/>
        <lane id="0/0to1/0_1" index="1" speed="30.00" length="500.00" shape="13.15,-8.25 485.35,-8.25"/>
        <lane id="0/0to1/0_2" index="2" speed="30.00" length="500.00" shape="13.15,-4.95 485.35,-4.95"/>
        <lane id="0/0to1/0_3" index="3" speed="30.00" length="500.00" shape="13.15,-1.65 485.35,-1.65"/>
    </edge>
    <edge id="0/1to0/0" from="0/1" to="0/0" priority="-1">
        <lane id="0/1to0/0_0" index="0" speed="30.00" length="500.00" shape="-11.55,485.35 -11.55,13.15"/>
        <lane id="0/1to0/0_1" index="1" speed="30.00" length="500.00" shape="-8.25,485.35 -8.25,13.15"/>
        <lane id="0/1to0/0_2" index="2" speed="30.00" length="500.00" shape="-4.95,485.35 -4.95,13.15"/>
        <lane id="0/1to0/0_3" index="3" speed="30.00" length="500.00" shape="-1.65,485.35 -1.65,13.15"/>
    </edge>
    <edge id="0/1to0/2" from="0/1" to="0/2" priority="-1">
        <lane id="0/1to0/2_0" index="0" speed="30.00" length="500.00" shape="11.55,514.65 11.55,985.35"/>
        <lane id="0/1to0/2_1" index="1" speed="30.00" length="500.00" shape="8.25,514.65 8.25,985.35"/>
        <lane id="0/1to0/2_2" index="2" speed="30.00" length="500.00" shape="4.95,514.65 4.95,985.35"/>
        <lane id="0/1to0/2_3" index="3" speed="30.00" length="500.00" shape="1.65,514.65 1.65,985.35"/>
    </edge>
    <edge id="0/1to1/1" from="0/1" to="1/1" priority="-1">
        <lane id="0/1to1/1_0" index="0" speed="30.00" length="500.00" shape="14.65,488.45 485.35,488.45"/>
        <lane id="0/1to1/1_1" index="1" speed="30.00" length="500.00" shape="14.65,491.75 485.35,491.75"/>
        <lane id="0/1to1/1_2" index="2" speed="30.00" length="500.00" shape="14.65,495.05 485.35,495.05"/>
        <lane id="0/1to1/1_3" index="3" speed="30.00" length="500.00" shape="14.65,498.35 485.35,498.35"/>
    </edge>
    <edge id="0/2to0/1" from="0/2" to="0/1" priority="-1">
        <lane id="0/2to0/1_0" index="0" speed="30.00" length="500.00" shape="-11.55,985.35 -11.55,514.65"/>
        <lane id="0/2to0/1_1" index="1" speed="30.00" length="500.00" shape="-8.25,985.35 -8.25,514.65"/>
        <lane id="0/2to0/1_2" index="2" speed="30.00" length="500.00" shape="-4.95,985.35 -4.95,514.65"/>
        <lane id="0/2to0/1_3" index="3" speed="30.00" length="500.00" shape="-1.65,985.35 -1.65,514.65"/>
    </edge>
    <edge id="0/2to0/3" from="0/2" to="0/3" priority="-1">
        <lane id="0/2to0/3_0" index="0" speed="30.00" length="500.00" shape="11.55,1014.65 11.55,1485.35"/>
        <lane id="0/2to0/3_1" index="1" speed="30.00" length="500.00" shape="8.25,1014.65 8.25,1485.35"/>
        <lane id="0/2to0/3_2" index="2" speed="30.00" length="500.00" shape="4.95,1014.65 4.95,1485.35"/>
        <lane id="0/2to0/3_3" index="3" speed="30.00" length="500.00" shape="1.65,1014.65 1.65,1485.35"/>
    </edge>
    <edge id="0/2to1/2" from="0/2" to="1/2" priority="-1">
        <lane id="0/2to1/2_0" index="0" speed="30.00" length="500.00" shape="14.65,988.45 485.35,988.45"/>
        <lane id="0/2to1/2_1" index="1" speed="30.00" length="500.00" shape="14.65,991.75 485.35,991.75"/>
        <lane id="0/2to1/2_2" index="2" speed="30.00" length="500.00" shape="14.65,995.05 485.35,995.05"/>
        <lane id="0/2to1/2_3" index="3" speed="30.00" length="500.00" shape="14.65,998.35 485.35,998.35"/>
    </edge>
    <edge id="0/3to0/2" from="0/3" to="0/2" priority="-1">
        <lane id="0/3to0/2_0" index="0" speed="30.00" length="500.00" shape="-11.55,1485.35 -11.55,1014.65"/>
        <lane id="0/3to0/2_1" index="1" speed="30.00" length="500.00" shape="-8.25,1485.35 -8.25,1014.65"/>
        <lane id="0/3to0/2_2" index="2" speed="30.00" length="500.00" shape="-4.95,1485.35 -4.95,1014.65"/>
        <lane id="0/3to0/2_3" index="3" speed="30.00" length="500.00" shape="-1.65,1485.35 -1.65,1014.65"/>
    </edge>
    <edge id="0/3to0/4" from="0/3" to="0/4" priority="-1">
        <lane id="0/3to0/4_0" index="0" speed="30.00" length="500.00" shape="11.55,1514.65 11.55,1985.35"/>
        <lane id="0/3to0/4_1" index="1" speed="30.00" length="500.00" shape="8.25,1514.65 8.25,1985.35"/>
        <lane id="0/3to0/4_2" index="2" speed="30.00" length="500.00" shape="4.95,1514.65 4.95,1985.35"/>
        <lane id="0/3to0/4_3" index="3" speed="30.00" length="500.00" shape="1.65,1514.65 1.65,1985.35"/>
    </edge>
    <edge id="0/3to1/3" from="0/3" to="1/3" priority="-1">
        <lane id="0/3to1/3_0" index="0" speed="30.00" length="500.00" shape="14.65,1488.45 485.35,1488.45"/>
        <lane id="0/3to1/3_1" index="1" speed="30.00" length="500.00" shape="14.65,1491.75 485.35,1491.75"/>
        <lane id="0/3to1/3_2" index="2" speed="30.00" length="500.00" shape="14.65,1495.05 485.35,1495.05"/>
        <lane id="0/3to1/3_3" index="3" speed="30.00" length="500.00" shape="14.65,1498.35 485.35,1498.35"/>
    </edge>
    <edge id="0/4to0/3" from="0/4" to="0/3" priority="-1">
        <lane id="0/4to0/3_0" index="0" speed="30.00" length="500.00" shape="-11.55,1985.35 -11.55,1514.65"/>
        <lane id="0/4to0/3_1" index="1" speed="30.00" length="500.00" shape="-8.25,1985.35 -8.25,1514.65"/>
        <lane id="0/4to0/3_2" index="2" speed="30.00" length="500.00" shape="-4.95,1985.35 -4.95,1514.65"/>
        <lane id="0/4to0/3_3" index="3" speed="30.00" length="500.00" shape="-1.65,1985.35 -1.65,1514.65"/>
    </edge>
    <edge id="0/4to0/5" from="0/4" to="0/5" priority="-1">
        <lane id="0/4to0/5_0" index="0" speed="30.00" length="500.00" shape="11.55,2014.65 11.55,2486.85"/>
        <lane id="0/4to0/5_1" index="1" speed="30.00" length="500.00" shape="8.25,2014.65 8.25,2486.85"/>
        <lane id="0/4to0/5_2" index="2" speed="30.00" length="500.00" shape="4.95,2014.65 4.95,2486.85"/>
        <lane id="0/4to0/5_3" index="3" speed="30.00" length="500.00" shape="1.65,2014.65 1.65,2486.85"/>
    </edge>
    <edge id="0/4to1/4" from="0/4" to="1/4" priority="-1">
        <lane id="0/4to1/4_0" index="0" speed="30.00" length="500.00" shape="14.65,1988.45 485.35,1988.45"/>
        <lane id="0/4to1/4_1" index="1" speed="30.00" length="500.00" shape="14.65,1991.75 485.35,1991.75"/>
        <lane id="0/4to1/4_2" index="2" speed="30.00" length="500.00" shape="14.65,1995.05 485.35,1995.05"/>
        <lane id="0/4to1/4_3" index="3" speed="30.00" length="500.00" shape="14.65,1998.35 485.35,1998.35"/>
    </edge>
    <edge id="0/5to0/4" from="0/5" to="0/4" priority="-1">
        <lane id="0/5to0/4_0" index="0" speed="30.00" length="500.00" shape="-11.55,2486.85 -11.55,2014.65"/>
        <lane id="0/5to0/4_1" index="1" speed="30.00" length="500.00" shape="-8.25,2486.85 -8.25,2014.65"/>
        <lane id="0/5to0/4_2" index="2" speed="30.00" length="500.00" shape="-4.95,2486.85 -4.95,2014.65"/>
        <lane id="0/5to0/4_3" index="3" speed="30.00" length="500.00" shape="-1.65,2486.85 -1.65,2014.65"/>
    </edge>
    <edge id="0/5to1/5" from="0/5" to="1/5" priority="-1">
        <lane id="0/5to1/5_0" index="0" speed="30.00" length="500.00" shape="13.15,2488.45 485.35,2488.45"/>
        <lane id="0/5to1/5_1" index="1" speed="30.00" length="500.00" shape="13.15,2491.75 485.35,2491.75"/>
        <lane id="0/5to1/5_2" index="2" speed="30.00" length="500.00" shape="13.15,2495.05 485.35,2495.05"/>
        <lane id="0/5to1/5_3" index="3" speed="30.00" length="500.00" shape="13.15,2498.35 485.35,2498.35"/>
    </edge>
    <edge id="1/0to0/0" from="1/0" to="0/0" priority="-1">
        <lane id="1/0to0/0_0" index="0" speed="30.00" length="500.00" shape="485.35,11.55 13.15,11.55"/>
        <lane id="1/0to0/0_1" index="1" speed="30.00" length="500.00" shape="485.35,8.25 13.15,8.25"/>
        <lane id="1/0to0/0_2" index="2" speed="30.00" length="500.00" shape="485.35,4.95 13.15,4.95"/>
        <lane id="1/0to0/0_3" index="3" speed="30.00" length="500.00" shape="485.35,1.65 13.15,1.65"/>
    </edge>
    <edge id="1/0to1/1" from="1/0" to="1/1" priority="-1">
        <lane id="1/0to1/1_0" index="0" speed="30.00" length="500.00" shape="511.55,14.65 511.55,485.35"/>
        <lane id="1/0to1/1_1" index="1" speed="30.00" length="500.00" shape="508.25,14.65 508.25,485.35"/>
        <lane id="1/0to1/1_2" index="2" speed="30.00" length="500.00" shape="504.95,14.65 504.95,485.35"/>
        <lane id="1/0to1/1_3" index="3" speed="30.00" length="500.00" shape="501.65,14.65 501.65,485.35"/>
    </edge>
    <edge id="1/0to2/0" from="1/0" to="2/0" priority="-1">
        <lane id="1/0to2/0_0" index="0" speed="30.00" length="500.00" shape="514.65,-11.55 985.35,-11.55"/>
        <lane id="1/0to2/0_1" index="1" speed="30.00" length="500.00" shape="514.65,-8.25 985.35,-8.25"/>
        <lane id="1/0to2/0_2" index="2" speed="30.00" length="500.00" shape="514.65,-4.95 985.35,-4.95"/>
        <lane id="1/0to2/0_3" index="3" speed="30.00" length="500.00" shape="514.65,-1.65 985.35,-1.65"/>
    </edge>
    <edge id="1/1to0/1" from="1/1" to="0/1" priority="-1">
        <lane id="1/1to0/1_0" index="0" speed="30.00" length="500.00" shape="485.35,511.55 14.65,511.55"/>
        <lane id="1/1to0/1_1" index="1" speed="30.00" length="500.00" shape="485.35,508.25 14.65,508.25"/>
        <lane id="1/1to0/1_2" index="2" speed="30.00" length="500.00" shape="485.35,504.95 14.65,504.95"/>
        <lane id="1/1to0/1_3" index="3" speed="30.00" length="500.00" shape="485.35,501.65 14.65,501.65"/>
    </edge>
    <edge id="1/1to1/0" from="1/1" to="1/0" priority="-1">
        <lane id="1/1to1/0_0" index="0" speed="30.00" length="500.00" shape="488.45,485.35 488.45,14.65"/>
        <lane id="1/1to1/0_1" index="1" speed="30.00" length="500.00" shape="491.75,485.35 491.75,14.65"/>
        <lane id="1/1to1/0_2" index="2" speed="30.00" length="500.00" shape="495.05,485.35 495.05,14.65"/>
        <lane id="1/1to1/0_3" index="3" speed="30.00" length="500.00" shape="498.35,485.35 498.35,14.65"/>
    </edge>
    <edge id="1/1to1/2" from="1/1" to="1/2" priority="-1">
        <lane id="1/1to1/2_0" index="0" speed="30.00" length="500.00" shape="511.55,514.65 511.55,985.35"/>
        <lane id="1/1to1/2_1" index="1" speed="30.00" length="500.00" shape="508.25,514.65 508.25,985.35"/>
        <lane id="1/1to1/2_2" index="2" speed="30.00" length="500.00" shape="504.95,514.65 504.95,985.35"/>
        <lane id="1/1to1/2_3" index="3" speed="30.00" length="500.00" shape="501.65,514.65 501.65,985.35"/>
    </edge>
    <edge id="1/1to2/1" from="1/1" to="2/1" priority="-1">
        <lane id="1/1to2/1_0" index="0" speed="30.00" length="500.00" shape="514.65,488.45 985.35,488.45"/>
        <lane id="1/1to2/1_1" index="1" speed="30.00" length="500.00" shape="514.65,491.75 985.35,491.75"/>
        <lane id="1/1to2/1_2" index="2" speed="30.00" length="500.00" shape="514.65,495.05 985.35,495.05"/>
        <lane id="1/1to2/1_3" index="3" speed="30.00" length="500.00" shape="514.65,498.35 985.35,498.35"/>
    </edge>
    <edge id="1/2to0/2" from="1/2" to="0/2" priority="-1">
        <lane id="1/2to0/2_0" index="0" speed="30.00" length="500.00" shape="485.35,1011.55 14.65,1011.55"/>
        <lane id="1/2to0/2_1" index="1" speed="30.00" length="500.00" shape="485.35,1008.25 14.65,1008.25"/>
        <lane id="1/2to0/2_2" index="2" speed="30.00" length="500.00" shape="485.35,1004.95 14.65,1004.95"/>
        <lane id="1/2to0/2_3" index="3" speed="30.00" length="500.00" shape="485.35,1001.65 14.65,1001.65"/>
    </edge>
    <edge id="1/2to1/1" from="1/2" to="1/1" priority="-1">
        <lane id="1/2to1/1_0" index="0" speed="30.00" length="500.00" shape="488.45,985.35 488.45,514.65"/>
        <lane id="1/2to1/1_1" index="1" speed="30.00" length="500.00" shape="491.75,985.35 491.75,514.65"/>
        <lane id="1/2to1/1_2" index="2" speed="30.00" length="500.00" shape="495.05,985.35 495.05,514.65"/>
        <lane id="1/2to1/1_3" index="3" speed="30.00" length="500.00" shape="498.35,985.35 498.35,514.65"/>
    </edge>
    <edge id="1/2to1/3" from="1/2" to="1/3" priority="-1">
        <lane id="1/2to1/3_0" index="0" speed="30.00" length="500.00" shape="511.55,1014.65 511.55,1485.35"/>
        <lane id="1/2to1/3_1" index="1" speed="30.00" length="500.00" shape="508.25,1014.65 508.25,1485.35"/>
        <lane id="1/2to1/3_2" index="2" speed="30.00" length="500.00" shape="504.95,1014.65 504.95,1485.35"/>
        <lane id="1/2to1/3_3" index="3" speed="30.00" length="500.00" shape="501.65,1014.65 501.65,1485.35"/>
    </edge>
    <edge id="1/2to2/2" from="1/2" to="2/2" priority="-1">
        <lane id="1/2to2/2_0" index="0" speed="30.00" length="500.00" shape="514.65,988.45 985.35,988.45"/>
        <lane id="1/2to2/2_1" index="1" speed="30.00" length="500.00" shape="514.65,991.75 985.35,991.75"/>
        <lane id="1/2to2/2_2" index="2" speed="30.00" length="500.00" shape="514.65,995.05 985.35,995.05"/>
        <lane id="1/2to2/2_3" index="3" speed="30.00" length="500.00" shape="514.65,998.35 985.35,998.35"/>
    </edge>
    <edge id="1/3to0/3" from="1/3" to="0/3" priority="-1">
        <lane id="1/3to0/3_0" index="0" speed="30.00" length="500.00" shape="485.35,1511.55 14.65,1511.55"/>
        <lane id="1/3to0/3_1" index="1" speed="30.00" length="500.00" shape="485.35,1508.25 14.65,1508.25"/>
        <lane id="1/3to0/3_2" index="2" speed="30.00" length="500.00" shape="485.35,1504.95 14.65,1504.95"/>
        <lane id="1/3to0/3_3" index="3" speed="30.00" length="500.00" shape="485.35,1501.65 14.65,1501.65"/>
    </edge>
    <edge id="1/3to1/2" from="1/3" to="1/2" priority="-1">
        <lane id="1/3to1/2_0" index="0" speed="30.00" length="500.00" shape="488.45,1485.35 488.45,1014.65"/>
        <lane id="1/3to1/2_1" index="1" speed="30.00" length="500.00" shape="491.75,1485.35 491.75,1014.65"/>
        <lane id="1/3to1/2_2" index="2" speed="30.00" length="500.00" shape="495.05,1485.35 495.05,1014.65"/>
        <lane id="1/3to1/2_3" index="3" speed="30.00" length="500.00" shape="498.35,1485.35 498.35,1014.65"/>
    </edge>
    <edge id="1/3to1/4" from="1/3" to="1/4" priority="-1">
        <lane id="1/3to1/4_0" index="0" speed="30.00" length="500.00" shape="511.55,1514.65 511.55,1985.35"/>
        <lane id="1/3to1/4_1" index="1" speed="30.00" length="500.00" shape="508.25,1514.65 508.25,1985.35"/>
        <lane id="1/3to1/4_2" index="2" speed="30.00" length="500.00" shape="504.95,1514.65 504.95,1985.35"/>
        <lane id="1/3to1/4_3" index="3" speed="30.00" length="500.00" shape="501.65,1514.65 501.65,1985.35"/>
    </edge>
    <edge id="1/3to2/3" from="1/3" to="2/3" priority="-1">
        <lane id="1/3to2/3_0" index="0" speed="30.00" length="500.00" shape="514.65,1488.45 985.35,1488.45"/>
        <lane id="1/3to2/3_1" index="1" speed="30.00" length="500.00" shape="514.65,1491.75 985.35,1491.75"/>
        <lane id="1/3to2/3_2" index="2" speed="30.00" length="500.00" shape="514.65,1495.05 985.35,1495.05"/>
        <lane id="1/3to2/3_3" index="3" speed="30.00" length="500.00" shape="514.65,1498.35 985.35,1498.35"/>
    </edge>
    <edge id="1/4to0/4" from="1/4" to="0/4" priority="-1">
        <lane id="1/4to0/4_0" index="0" speed="30.00" length="500.00" shape="485.35,2011.55 14.65,2011.55"/>
        <lane id="1/4to0/4_1" index="1" speed="30.00" length="500.00" shape="485.35,2008.25 14.65,2008.25"/>
        <lane id="1/4to0/4_2" index="2" speed="30.00" length="500.00" shape="485.35,2004.95 14.65,2004.95"/>
        <lane id="1/4to0/4_3" index="3" speed="30.00" length="500.00" shape="485.35,2001.65 14.65,2001.65"/>
    </edge>
    <edge id="1/4to1/3" from="1/4" to="1/3" priority="-1">
        <lane id="1/4to1/3_0" index="0" speed="30.00" length="500.00" shape="488.45,1985.35 488.45,1514.65"/>
        <lane id="1/4to1/3_1" index="1" speed="30.00" length="500.00" shape="491.75,1985.35 491.75,1514.65"/>
        <lane id="1/4to1/3_2" index="2" speed="30.00" length="500.00" shape="495.05,1985.35 495.05,1514.65"/>
        <lane id="1/4to1/3_3" index="3" speed="30.00" length="500.00" shape="498.35,1985.35 498.35,1514.65"/>
    </edge>
    <edge id="1/4to1/5" from="1/4" to="1/5" priority="-1">
        <lane id="1/4to1/5_0" index="0" speed="30.00" length="500.00" shape="511.55,2014.65 511.55,2485.35"/>
        <lane id="1/4to1/5_1" index="1" speed="30.00" length="500.00" shape="508.25,2014.65 508.25,2485.35"/>
        <lane id="1/4to1/5_2" index="2" speed="30.00" length="500.00" shape="504.95,2014.65 504.95,2485.35"/>
        <lane id="1/4to1/5_3" index="3" speed="30.00" length="500.00" shape="501.65,2014.65 501.65,2485.35"/>
    </edge>
    <edge id="1/4to2/4" from="1/4" to="2/4" priority="-1">
        <lane id="1/4to2/4_0" index="0" speed="30.00" length="500.00" shape="514.65,1988.45 985.35,1988.45"/>
        <lane id="1/4to2/4_1" index="1" speed="30.00" length="500.00" shape="514.65,1991.75 985.35,1991.75"/>
        <lane id="1/4to2/4_2" index="2" speed="30.00" length="500.00" shape="514.65,1995.05 985.35,1995.05"/>
        <lane id="1/4to2/4_3" index="3" speed="30.00" length="500.00" shape="514.65,1998.35 985.35,1998.35"/>
    </edge>
    <edge id="1/5to0/5" from="1/5" to="0/5" priority="-1">
        <lane id="1/5to0/5_0" index="0" speed="30.00" length="500.00" shape="485.35,2511.55 13.15,2511.55"/>
        <lane id="1/5to0/5_1" index="1" speed="30.00" length="500.00" shape="485.35,2508.25 13.15,2508.25"/>
        <lane id="1/5to0/5_2" index="2" speed="30.00" length="500.00" shape="485.35,2504.95 13.15,2504.95"/>
        <lane id="1/5to0/5_3" index="3" speed="30.00" length="500.00" shape="485.35,2501.65 13.15,2501.65"/>
    </edge>
    <edge id="1/5to1/4" from="1/5" to="1/4" priority="-1">
        <lane id="1/5to1/4_0" index="0" speed="30.00" length="500.00" shape="488.45,2485.35 488.45,2014.65"/>
        <lane id="1/5to1/4_1" index="1" speed="30.00" length="500.00" shape="491.75,2485.35 491.75,2014.65"/>
        <lane id="1/5to1/4_2" index="2" speed="30.00" length="500.00" shape="495.05,2485.35 495.05,2014.65"/>
        <lane id="1/5to1/4_3" index="3" speed="30.00" length="500.00" shape="498.35,2485.35 498.35,2014.65"/>
    </edge>
    <edge id="1/5to2/5" from="1/5" to="2/5" priority="-1">
        <lane id="1/5to2/5_0" index="0" speed="30.00" length="500.00" shape="514.65,2488.45 985.35,2488.45"/>
        <lane id="1/5to2/5_1" index="1" speed="30.00" length="500.00" shape="514.65,2491.75 985.35,2491.75"/>
        <lane id="1/5to2/5_2" index="2" speed="30.00" length="500.00" shape="514.65,2495.05 985.35,2495.05"/>
        <lane id="1/5to2/5_3" index="3" speed="30.00" length="500.00" shape="514.65,2498.35 985.35,2498.35"/>
    </edge>
    <edge id="2/0to1/0" from="2/0" to="1/0" priority="-1">
        <lane id="2/0to1/0_0" index="0" speed="30.00" length="500.00" shape="985.35,11.55 514.65,11.55"/>
        <lane id="2/0to1/0_1" index="1" speed="30.00" length="500.00" shape="985.35,8.25 514.65,8.25"/>
        <lane id="2/0to1/0_2" index="2" speed="30.00" length="500.00" shape="985.35,4.95 514.65,4.95"/>
        <lane id="2/0to1/0_3" index="3" speed="30.00" length="500.00" shape="985.35,1.65 514.65,1.65"/>
    </edge>
    <edge id="2/0to2/1" from="2/0" to="2/1" priority="-1">
        <lane id="2/0to2/1_0" index="0" speed="30.00" length="500.00" shape="1011.55,14.65 1011.55,485.35"/>
        <lane id="2/0to2/1_1" index="1" speed="30.00" length="500.00" shape="1008.25,14.65 1008.25,485.35"/>
        <lane id="2/0to2/1_2" index="2" speed="30.00" length="500.00" shape="1004.95,14.65 1004.95,485.35"/>
        <lane id="2/0to2/1_3" index="3" speed="30.00" length="500.00" shape="1001.65,14.65 1001.65,485.35"/>
    </edge>
    <edge id="2/0to3/0" from="2/0" to="3/0" priority="-1">
        <lane id="2/0to3/0_0" index="0" speed="30.00" length="500.00" shape="1014.65,-11.55 1485.35,-11.55"/>
        <lane id="2/0to3/0_1" index="1" speed="30.00" length="500.00" shape="1014.65,-8.25 1485.35,-8.25"/>
        <lane id="2/0to3/0_2" index="2" speed="30.00" length="500.00" shape="1014.65,-4.95 1485.35,-4.95"/>
        <lane id="2/0to3/0_3" index="3" speed="30.00" length="500.00" shape="1014.65,-1.65 1485.35,-1.65"/>
    </edge>
    <edge id="2/1to1/1" from="2/1" to="1/1" priority="-1">
        <lane id="2/1to1/1_0" index="0" speed="30.00" length="500.00" shape="985.35,511.55 514.65,511.55"/>
        <lane id="2/1to1/1_1" index="1" speed="30.00" length="500.00" shape="985.35,508.25 514.65,508.25"/>
        <lane id="2/1to1/1_2" index="2" speed="30.00" length="500.00" shape="985.35,504.95 514.65,504.95"/>
        <lane id="2/1to1/1_3" index="3" speed="30.00" length="500.00" shape="985.35,501.65 514.65,501.65"/>
    </edge>
    <edge id="2/1to2/0" from="2/1" to="2/0" priority="-1">
        <lane id="2/1to2/0_0" index="0" speed="30.00" length="500.00" shape="988.45,485.35 988.45,14.65"/>
        <lane id="2/1to2/0_1" index="1" speed="30.00" length="500.00" shape="991.75,485.35 991.75,14.65"/>
        <lane id="2/1to2/0_2" index="2" speed="30.00" length="500.00" shape="995.05,485.35 995.05,14.65"/>
        <lane id="2/1to2/0_3" index="3" speed="30.00" length="500.00" shape="998.35,485.35 998.35,14.65"/>
    </edge>
    <edge id="2/1to2/2" from="2/1" to="2/2" priority="-1">
        <lane id="2/1to2/2_0" index="0" speed="30.00" length="500.00" shape="1011.55,514.65 1011.55,985.35"/>
        <lane id="2/1to2/2_1" index="1" speed="30.00" length="500.00" shape="1008.25,514.65 1008.25,985.35"/>
        <lane id="2/1to2/2_2" index="2" speed="30.00" length="500.00" shape="1004.95,514.65 1004.95,985.35"/>
        <lane id="2/1to2/2_3" index="3" speed="30.00" length="500.00" shape="1001.65,514.65 1001.65,985.35"/>
    </edge>
    <edge id="2/1to3/1" from="2/1" to="3/1" priority="-1">
        <lane id="2/1to3/1_0" index="0" speed="30.00" length="500.00" shape="1014.65,488.45 1485.35,488.45"/>
        <lane id="2/1to3/1_1" index="1" speed="30.00" length="500.00" shape="1014.65,491.75 1485.35,491.75"/>
        <lane id="2/1to3/1_2" index="2" speed="30.00" length="500.00" shape="1014.65,495.05 1485.35,495.05"/>
        <lane id="2/1to3/1_3" index="3" speed="30.00" length="500.00" shape="1014.65,498.35 1485.35,498.35"/>
    </edge>
    <edge id="2/2to1/2" from="2/2" to="1/2" priority="-1">
        <lane id="2/2to1/2_0" index="0" speed="30.00" length="500.00" shape="985.35,1011.55 514.65,1011.55"/>
        <lane id="2/2to1/2_1" index="1" speed="30.00" length="500.00" shape="985.35,1008.25 514.65,1008.25"/>
        <lane id="2/2to1/2_2" index="2" speed="30.00" length="500.00" shape="985.35,1004.95 514.65,1004.95"/>
        <lane id="2/2to1/2_3" index="3" speed="30.00" length="500.00" shape="985.35,1001.65 514.65,1001.65"/>
    </edge>
    <edge id="2/2to2/1" from="2/2" to="2/1" priority="-1">
        <lane id="2/2to2/1_0" index="0" speed="30.00" length="500.00" shape="988.45,985.35 988.45,514.65"/>
        <lane id="2/2to2/1_1" index="1" speed="30.00" length="500.00" shape="991.75,985.35 991.75,514.65"/>
        <lane id="2/2to2/1_2" index="2" speed="30.00" length="500.00" shape="995.05,985.35 995.05,514.65"/>
        <lane id="2/2to2/1_3" index="3" speed="30.00" length="500.00" shape="998.35,985.35 998.35,514.65"/>
    </edge>
    <edge id="2/2to2/3" from="2/2" to="2/3" priority="-1">
        <lane id="2/2to2/3_0" index="0" speed="30.00" length="500.00" shape="1011.55,1014.65 1011.55,1485.35"/>
        <lane id="2/2to2/3_1" index="1" speed="30.00" length="500.00" shape="1008.25,1014.65 1008.25,1485.35"/>
        <lane id="2/2to2/3_2" index="2" speed="30.00" length="500.00" shape="1004.95,1014.65 1004.95,1485.35"/>
        <lane id="2/2to2/3_3" index="3" speed="30.00" length="500.00" shape="1001.65,1014.65 1001.65,1485.35"/>
    </edge>
    <edge id="2/2to3/2" from="2/2" to="3/2" priority="-1">
        <lane id="2/2to3/2_0" index="0" speed="30.00" length="500.00" shape="1014.65,988.45 1485.35,988.45"/>
        <lane id="2/2to3/2_1" index="1" speed="30.00" length="500.00" shape="1014.65,991.75 1485.35,991.75"/>
        <lane id="2/2to3/2_2" index="2" speed="30.00" length="500.00" shape="1014.65,995.05 1485.35,995.05"/>
        <lane id="2/2to3/2_3" index="3" speed="30.00" length="500.00" shape="1014.65,998.35 1485.35,998.35"/>
    </edge>
    <edge id="2/3to1/3" from="2/3" to="1/3" priority="-1">
        <lane id="2/3to1/3_0" index="0" speed="30.00" length="500.00" shape="985.35,1511.55 514.65,1511.55"/>
        <lane id="2/3to1/3_1" index="1" speed="30.00" length="500.00" shape="985.35,1508.25 514.65,1508.25"/>
        <lane id="2/3to1/3_2" index="2" speed="30.00" length="500.00" shape="985.35,1504.95 514.65,1504.95"/>
        <lane id="2/3to1/3_3" index="3" speed="30.00" length="500.00" shape="985.35,1501.65 514.65,1501.65"/>
    </edge>
    <edge id="2/3to2/2" from="2/3" to="2/2" priority="-1">
        <lane id="2/3to2/2_0" index="0" speed="30.00" length="500.00" shape="988.45,1485.35 988.45,1014.65"/>
        <lane id="2/3to2/2_1" index="1" speed="30.00" length="500.00" shape="991.75,1485.35 991.75,1014.65"/>
        <lane id="2/3to2/2_2" index="2" speed="30.00" length="500.00" shape="995.05,1485.35 995.05,1014.65"/>
        <lane id="2/3to2/2_3" index="3" speed="30.00" length="500.00" shape="998.35,1485.35 998.35,1014.65"/>
    </edge>
    <edge id="2/3to2/4" from="2/3" to="2/4" priority="-1">
        <lane id="2/3to2/4_0" index="0" speed="30.00" length="500.00" shape="1011.55,1514.65 1011.55,1985.35"/>
        <lane id="2/3to2/4_1" index="1" speed="30.00" length="500.00" shape="1008.25,1514.65 1008.25,1985.35"/>
        <lane id="2/3to2/4_2" index="2" speed="30.00" length="500.00" shape="1004.95,1514.65 1004.95,1985.35"/>
        <lane id="2/3to2/4_3" index="3" speed="30.00" length="500.00" shape="1001.65,1514.65 1001.65,1985.35"/>
    </edge>
    <edge id="2/3to3/3" from="2/3" to="3/3" priority="-1">
        <lane id="2/3to3/3_0" index="0" speed="30.00" length="500.00" shape="1014.65,1488.45 1485.35,1488.45"/>
        <lane id="2/3to3/3_1" index="1" speed="30.00" length="500.00" shape="1014.65,1491.75 1485.35,1491.75"/>
        <lane id="2/3to3/3_2" index="2" speed="30.00" length="500.00" shape="1014.65,1495.05 1485.35,1495.05"/>
        <lane id="2/3to3/3_3" index="3" speed="30.00" length="500.00" shape="1014.65,1498.35 1485.35,1498.35"/>
    </edge>
    <edge id="2/4to1/4" from="2/4" to="1/4" priority="-1">
        <lane id="2/4to1/4_0" index="0" speed="30.00" length="500.00" shape="985.35,2011.55 514.65,2011.55"/>
        <lane id="2/4to1/4_1" index="1" speed="30.00" length="500.00" shape="985.35,2008.25 514.65,2008.25"/>
        <lane id="2/4to1/4_2" index="2" speed="30.00" length="500.00" shape="985.35,2004.95 514.65,2004.95"/>
        <lane id="2/4to1/4_3" index="3" speed="30.00" length="500.00" shape="985.35,2001.65 514.65,2001.65"/>
    </edge>
    <edge id="2/4to2/3" from="2/4" to="2/3" priority="-1">
        <lane id="2/4to2/3_0" index="0" speed="30.00" length="500.00" shape="988.45,1985.35 988.45,1514.65"/>
        <lane id="2/4to2/3_1" index="1" speed="30.00" length="500.00" shape="991.75,1985.35 991.75,1514.65"/>
        <lane id="2/4to2/3_2" index="2" speed="30.00" length="500.00" shape="995.05,1985.35 995.05,1514.65"/>
        <lane id="2/4to2/3_3" index="3" speed="30.00" length="500.00" shape="998.35,1985.35 998.35,1514.65"/>
    </edge>
    <edge id="2/4to2/5" from="2/4" to="2/5" priority="-1">
        <lane id="2/4to2/5_0" index="0" speed="30.00" length="500.00" shape="1011.55,2014.65 1011.55,2485.35"/>
        <lane id="2/4to2/5_1" index="1" speed="30.00" length="500.00" shape="1008.25,2014.65 1008.25,2485.35"/>
        <lane id="2/4to2/5_2" index="2" speed="30.00" length="500.00" shape="1004.95,2014.65 1004.95,2485.35"/>
        <lane id="2/4to2/5_3" index="3" speed="30.00" length="500.00" shape="1001.65,2014.65 1001.65,2485.35"/>
    </edge>
    <edge id="2/4to3/4" from="2/4" to="3/4" priority="-1">
        <lane id="2/4to3/4_0" index="0" speed="30.00" length="500.00" shape="1014.65,1988.45 1485.35,1988.45"/>
        <lane id="2/4to3/4_1" index="1" speed="30.00" length="500.00" shape="1014.65,1991.75 1485.35,1991.75"/>
        <lane id="2/4to3/4_2" index="2" speed="30.00" length="500.00" shape="1014.65,1995.05 1485.35,1995.05"/>
        <lane id="2/4to3/4_3" index="3" speed="30.00" length="500.00" shape="1014.65,1998.35 1485.35,1998.35"/>
    </edge>
    <edge id="2/5to1/5" from="2/5" to="1/5" priority="-1">
        <lane id="2/5to1/5_0" index="0" speed="30.00" length="500.00" shape="985.35,2511.55 514.65,2511.55"/>