<?xml version="1.0" encoding="UTF-8"?>

<!-- generated on 01/17/18 21:54:45 by SUMO duarouter Version 0.24.0
<?xml version="1.0" encoding="UTF-8"?>

<configuration xmlns:xsi="http://www.w3.org/2001/XMLSchema-instance" xsi:noNamespaceSchemaLocation="http://sumo.dlr.de/xsd/duarouterConfiguration.xsd">

    <input>
        <net-file value="input_net.net.xml"/>
        <additional-files value="type.add.xml"/>
        <trip-files value="trips.trips.xml"/>
    </input>

    <output>
        <output-file value="routes.rou.xml"/>
    </output>

    <time>
        <begin value="0"/>
        <end value="600"/>
    </time>

</configuration>
-->

<routes xmlns:xsi="http://www.w3.org/2001/XMLSchema-instance" xsi:noNamespaceSchemaLocation="http://sumo.dlr.de/xsd/routes_file.xsd">
    <vehicle id="0" depart="0.00" departLane="best">
        <route edges="1/2to1/3 1/3to0/3 0/3to0/2"/>
    </vehicle>
    <vType id="RSU" guiShape="bus" color="red"/>
    <vehicle id="250" type="RSU" depart="0.00" departPos="1000.00" color="red">
        <route edges="3/2to3/1"/>
        <stop lane="3/2to3/1_0" endPos="1000.00" until="599.00" parking="1"/>
    </vehicle>
    <vehicle id="251" type="RSU" depart="0.00" departPos="1000.00" color="red">
        <route edges="2/1to2/0"/>
        <stop lane="2/1to2/0_0" endPos="1000.00" until="599.00" parking="1"/>
    </vehicle>
    <vehicle id="252" type="RSU" depart="0.00" departPos="1000.00" color="red">
        <route edges="0/2to0/1"/>
        <stop lane="0/2to0/1_0" endPos="1000.00" until="599.00" parking="1"/>
    </vehicle>
    <vehicle id="253" type="RSU" depart="0.00" departPos="1000.00" color="red">
        <route edges="3/3to3/2"/>
        <stop lane="3/3to3/2_0" endPos="1000.00" until="599.00" parking="1"/>
    </vehicle>
    <vehicle id="254" type="RSU" depart="0.00" departPos="1000.00" color="red">
        <route edges="1/1to1/0"/>
        <stop lane="1/1to1/0_0" endPos="1000.00" until="599.00" parking="1"/>
    </vehicle>
    <vehicle id="255" type="RSU" depart="0.00" departPos="1000.00" color="red">
        <route edges="2/3to2/2"/>
        <stop lane="2/3to2/2_0" endPos="1000.00" until="599.00" parking="1"/>
    </vehicle>
    <vehicle id="256" type="RSU" depart="0.00" departPos="1000.00" color="red">
        <route edges="3/3to2/3"/>
        <stop lane="3/3to2/3_0" endPos="1000.00" until="599.00" parking="1"/>
    </vehicle>
    <vehicle id="257" type="RSU" depart="0.00" departPos="1000.00" color="red">
        <route edges="0/1to0/0"/>
        <stop lane="0/1to0/0_0" endPos="1000.00" until="599.00" parking="1"/>
    </vehicle>
    <vehicle id="258" type="RSU" depart="0.00" departPos="1000.00" color="red">
        <route edges="1/3to1/2"/>
        <stop lane="1/3to1/2_0" endPos="1000.00" until="599.00" parking="1"/>
    </vehicle>
    <vehicle id="259" type="RSU" depart="0.00" departPos="1000.00" color="red">
        <route edges="0/3to0/2"/>
        <stop lane="0/3to0/2_0" endPos="1000.00" until="599.00" parking="1"/>
    </vehicle>
    <vehicle id="260" type="RSU" depart="0.00" departPos="1000.00" color="red">
        <route edges="2/3to1/3"/>
        <stop lane="2/3to1/3_0" endPos="1000.00" until="599.00" parking="1"/>
    </vehicle>
    <vehicle id="261" type="RSU" depart="0.00" departPos="1000.00" color="red">
        <route edges="3/1to3/0"/>
        <stop lane="3/1to3/0_0" endPos="1000.00" until="599.00" parking="1"/>
    </vehicle>
    <vehicle id="262" type="RSU" depart="0.00" departPos="1000.00" color="red">
        <route edges="1/3to0/3"/>
        <stop lane="1/3to0/3_0" endPos="1000.00" until="599.00" parking="1"/>
    </vehicle>
    <vehicle id="263" type="RSU" depart="0.00" departPos="1000.00" color="red">
        <route edges="3/2to3/3"/>
        <stop lane="3/2to3/3_0" endPos="1000.00" until="599.00" parking="1"/>
    </vehicle>
    <vehicle id="264" type="RSU" depart="0.00" departPos="1000.00" color="red">
        <route edges="1/2to1/1"/>
        <stop lane="1/2to1/1_0" endPos="1000.00" until="599.00" parking="1"/>
    </vehicle>
    <vehicle id="265" type="RSU" depart="0.00" departPos="1000.00" color="red">
        <route edges="2/2to2/1"/>
        <stop lane="2/2to2/1_0" endPos="1000.00" until="599.00" parking="1"/>
    </vehicle>
    <vehicle id="1" depart="0.10" departLane="best">
        <route edges="1/1to2/1 2/1to1/1 1/1to1/0"/>
    </vehicle>
    <vehicle id="2" depart="0.20" departLane="best">
        <route edges="1/1to0/1 0/1to0/2 0/2to0/3 0/3to1/3 1/3to2/3 2/3to3/3 3/3to3/2"/>
    </vehicle>
    <vehicle id="3" depart="0.30" departLane="best">
        <route edges="2/1to2/2 2/2to1/2 1/2to0/2 0/2to0/3 0/3to0/2"/>
    </vehicle>
    <vehicle id="4" depart="0.40" departLane="best">
        <route edges="3/3to3/2 3/2to2/2 2/2to1/2 1/2to0/2 0/2to1/2"/>
    </vehicle>
    <vehicle id="5" depart="0.50" departLane="best">
        <route edges="2/0to3/0 3/0to3/1 3/1to3/2 3/2to3/3"/>
    </vehicle>
    <vehicle id="6" depart="0.60" departLane="best">
        <route edges="3/3to3/2 3/2to2/2 2/2to2/1 2/1to2/0 2/0to3/0"/>
    </vehicle>
    <vehicle id="7" depart="0.70" departLane="best">
        <route edges="0/1to0/2 0/2to1/2 1/2to2/2"/>
    </vehicle>
    <vehicle id="8" depart="0.80" departLane="best">
        <route edges="0/3to1/3 1/3to1/2 1/2to1/1 1/1to2/1"/>
    </vehicle>
    <vehicle id="9" depart="0.90" departLane="best">
        <route edges="2/1to2/2 2/2to3/2 3/2to2/2"/>
    </vehicle>
    <vehicle id="10" depart="1.00" departLane="best">
        <route edges="3/1to2/1 2/1to1/1 1/1to0/1 0/1to0/2 0/2to0/1"/>
    </vehicle>
    <vehicle id="11" depart="1.10" departLane="best">
        <route edges="3/1to3/0 3/0to2/0 2/0to1/0 1/0to0/0 0/0to0/1 0/1to0/2 0/2to1/2"/>
    </vehicle>
    <vehicle id="12" depart="1.20" departLane="best">
        <route edges="3/3to2/3 2/3to1/3 1/3to0/3 0/3to1/3"/>
    </vehicle>
    <vehicle id="13" depart="1.30" departLane="best">
        <route edges="3/0to3/1 3/1to2/1 2/1to2/2 2/2to2/3 2/3to1/3"/>
    </vehicle>
    <vehicle id="14" depart="1.40" departLane="best">
        <route edges="1/1to0/1 0/1to0/0 0/0to1/0 1/0to2/0 2/0to3/0 3/0to2/0"/>
    </vehicle>
    <vehicle id="15" depart="1.50" departLane="best">
        <route edges="2/1to2/2 2/2to1/2 1/2to1/1 1/1to2/1"/>
    </vehicle>
    <vehicle id="16" depart="1.60" departLane="best">
        <route edges="3/0to3/1 3/1to2/1 2/1to1/1 1/1to1/0 1/0to1/1"/>
    </vehicle>
    <vehicle id="17" depart="1.70" departLane="best">
        <route edges="1/1to2/1 2/1to3/1 3/1to2/1"/>
    </vehicle>
    <vehicle id="18" depart="1.80" departLane="best">
        <route edges="2/2to3/2 3/2to2/2 2/2to2/1 2/1to2/0 2/0to3/0"/>
    </vehicle>
    <vehicle id="19" depart="1.90" departLane="best">
        <route edges="2/0to2/1 2/1to1/1 1/1to0/1 0/1to0/0 0/0to1/0"/>
    </vehicle>
    <vehicle id="20" depart="2.00" departLane="best">
        <route edges="1/0to0/0 0/0to0/1 0/1to0/2 0/2to1/2 1/2to2/2 2/2to2/1"/>
    </vehicle>
    <vehicle id="21" depart="2.10" departLane="best">
        <route edges="0/1to1/1 1/1to2/1 2/1to1/1"/>
    </vehicle>
    <vehicle id="22" depart="2.20" departLane="best">
        <route edges="2/2to2/3 2/3to1/3 1/3to1/2 1/2to1/1 1/1to2/1"/>
    </vehicle>
    <vehicle id="23" depart="2.30" departLane="best">
        <route edges="3/1to3/2"/>
    </vehicle>
    <vehicle id="24" depart="2.40" departLane="best">
        <route edges="3/0to3/1 3/1to2/1 2/1to2/2"/>
    </vehicle>
    <vehicle id="25" depart="2.50" departLane="best">
        <route edges="1/2to1/3 1/3to1/2 1/2to2/2 2/2to2/3"/>
    </vehicle>
    <vehicle id="26" depart="2.60" departLane="best">
        <route edges="3/3to3/2 3/2to2/2 2/2to1/2 1/2to0/2 0/2to0/1 0/1to0/0 0/0to1/0"/>
    </vehicle>
    <vehicle id="27" depart="2.70" departLane="best">
        <route edges="2/0to2/1 2/1to1/1 1/1to0/1 0/1to0/2 0/2to0/3"/>
    </vehicle>
    <vehicle id="28" depart="2.80" departLane="best">
        <route edges="0/2to0/3 0/3to1/3 1/3to2/3 2/3to3/3 3/3to3/2"/>
    </vehicle>
    <vehicle id="29" depart="2.90" departLane="best">
        <route edges="0/0to1/0 1/0to1/1 1/1to2/1 2/1to3/1 3/1to3/0"/>
    </vehicle>
    <vehicle id="30" depart="3.00" departLane="best">
        <route edges="2/1to2/0 2/0to1/0 1/0to1/1 1/1to1/2"/>
    </vehicle>
    <vehicle id="31" depart="3.10" departLane="best">
        <route edges="1/3to0/3 0/3to0/2 0/2to0/1 0/1to0/0 0/0to1/0"/>
    </vehicle>
    <vehicle id="32" depart="3.20" departLane="best">
        <route edges="2/0to3/0 3/0to2/0 2/0to2/1 2/1to2/2 2/2to2/3 2/3to3/3"/>
    </vehicle>
    <vehicle id="33" depart="3.30" departLane="best">
        <route edges="0/0to1/0 1/0to2/0"/>
    </vehicle>
    <vehicle id="34" depart="3.40" departLane="best">
        <route edges="1/3to1/2 1/2to1/1 1/1to0/1"/>
    </vehicle>
    <vehicle id="35" depart="3.50" departLane="best">
        <route edges="1/3to1/2 1/2to2/2 2/2to3/2 3/2to2/2"/>
    </vehicle>
    <vehicle id="36" depart="3.60" departLane="best">
        <route edges="2/1to2/2 2/2to1/2 1/2to0/2 0/2to0/1 0/1to0/2"/>
    </vehicle>
    <vehicle id="37" depart="3.70" departLane="best">
        <route edges="3/2to3/3 3/3to2/3 2/3to1/3 1/3to0/3 0/3to0/2 0/2to0/1 0/1to0/0"/>
    </vehicle>
    <vehicle id="38" depart="3.80" departLane="best">
        <route edges="0/0to0/1 0/1to0/2 0/2to0/3 0/3to1/3 1/3to2/3 2/3to3/3 3/3to2/3"/>
    </vehicle>
    <vehicle id="39" depart="3.90" departLane="best">
        <route edges="0/2to0/1 0/1to0/2 0/2to0/3 0/3to1/3 1/3to2/3 2/3to3/3 3/3to2/3"/>
    </vehicle>
    <vehicle id="40" depart="4.00" departLane="best">
        <route edges="1/3to2/3 2/3to1/3 1/3to1/2 1/2to1/1 1/1to1/0 1/0to1/1"/>
    </vehicle>
    <vehicle id="41" depart="4.10" departLane="best">
        <route edges="2/3to3/3 3/3to2/3 2/3to1/3 1/3to0/3"/>
    </vehicle>
    <vehicle id="42" depart="4.20" departLane="best">
        <route edges="2/3to3/3 3/3to3/2 3/2to3/1 3/1to3/0"/>
    </vehicle>
    <vehicle id="43" depart="4.30" departLane="best">
        <route edges="3/0to3/1 3/1to3/2 3/2to3/1"/>
    </vehicle>
    <vehicle id="44" depart="4.40" departLane="best">
        <route edges="2/3to2/2 2/2to2/3"/>
    </vehicle>
    <vehicle id="45" depart="4.50" departLane="best">
        <route edges="3/0to2/0 2/0to1/0 1/0to0/0 0/0to0/1 0/1to0/2 0/2to1/2"/>
    </vehicle>
    <vehicle id="46" depart="4.60" departLane="best">
        <route edges="1/1to0/1 0/1to0/2 0/2to0/3 0/3to1/3 1/3to2/3 2/3to1/3"/>
    </vehicle>
    <vehicle id="47" depart="4.70" departLane="best">
        <route edges="3/1to3/0 3/0to2/0 2/0to1/0 1/0to0/0 0/0to0/1 0/1to0/2 0/2to0/3"/>
    </vehicle>
    <vehicle id="48" depart="4.80" departLane="best">
        <route edges="2/0to1/0"/>
    </vehicle>
    <vehicle id="49" depart="4.90" departLane="best">
        <route edges="1/3to1/2 1/2to1/1"/>
    </vehicle>
    <vehicle id="50" depart="5.00" departLane="best">
        <route edges="1/1to0/1 0/1to0/0 0/0to0/1"/>
    </vehicle>
    <vehicle id="51" depart="5.10" departLane="best">
        <route edges="3/2to2/2 2/2to2/1 2/1to2/0 2/0to2/1"/>
    </vehicle>
    <vehicle id="52" depart="5.20" departLane="best">
        <route edges="1/2to1/3 1/3to0/3 0/3to0/2 0/2to0/1 0/1to1/1"/>
    </vehicle>
    <vehicle id="53" depart="5.30" departLane="best">
        <route edges="0/1to0/0 0/0to0/1 0/1to0/2 0/2to1/2 1/2to2/2 2/2to2/1"/>
    </vehicle>
    <vehicle id="54" depart="5.40" departLane="best">
        <route edges="3/0to3/1 3/1to2/1 2/1to2/2 2/2to2/1"/>
    </vehicle>
    <vehicle id="55" depart="5.50" departLane="best">
        <route edges="3/2to3/3 3/3to2/3 2/3to1/3 1/3to0/3 0/3to0/2"/>
    </vehicle>
    <vehicle id="56" depart="5.60" departLane="best">
        <route edges="1/0to0/0 0/0to0/1 0/1to1/1 1/1to2/1 2/1to3/1 3/1to3/2"/>
    </vehicle>
    <vehicle id="57" depart="5.70" departLane="best">
        <route edges="2/1to2/0 2/0to1/0 1/0to1/1 1/1to1/2 1/2to1/3 1/3to1/2"/>
    </vehicle>
    <vehicle id="58" depart="5.80" departLane="best">
        <route edges="0/1to0/2 0/2to0/1 0/1to1/1 1/1to2/1 2/1to1/1"/>
    </vehicle>
    <vehicle id="59" depart="5.90" departLane="best">
        <route edges="2/0to2/1 2/1to1/1 1/1to1/2 1/2to0/2"/>
    </vehicle>
    <vehicle id="60" depart="6.00" departLane="best">
        <route edges="3/2to3/3 3/3to2/3 2/3to1/3 1/3to1/2 1/2to1/1 1/1to1/0 1/0to2/0"/>
    </vehicle>
    <vehicle id="61" depart="6.10" departLane="best">
        <route edges="0/0to0/1 0/1to0/2 0/2to1/2 1/2to2/2 2/2to3/2 3/2to3/3"/>
    </vehicle>
    <vehicle id="62" depart="6.20" departLane="best">
        <route edges="3/2to3/1 3/1to2/1 2/1to2/0 2/0to1/0"/>
    </vehicle>
    <vehicle id="63" depart="6.30" departLane="best">
        <route edges="1/1to2/1 2/1to2/0 2/0to3/0 3/0to2/0"/>
    </vehicle>
    <vehicle id="64" depart="6.40" departLane="best">
        <route edges="2/1to2/2 2/2to2/1 2/1to3/1 3/1to3/0"/>
    </vehicle>
    <vehicle id="65" depart="6.50" departLane="best">
        <route edges="0/1to0/2 0/2to0/1 0/1to1/1 1/1to1/2"/>
    </vehicle>
    <vehicle id="66" depart="6.60" departLane="best">
        <route edges="2/3to1/3 1/3to1/2 1/2to1/1 1/1to2/1 2/1to2/2"/>
    </vehicle>
    <vehicle id="67" depart="6.70" departLane="best">
        <route edges="0/1to1/1 1/1to2/1"/>
    </vehicle>
    <vehicle id="68" depart="6.80" departLane="best">
        <route edges="0/2to1/2 1/2to1/3 1/3to2/3"/>
    </vehicle>
    <vehicle id="69" depart="6.90" departLane="best">
        <route edges="1/2to0/2 0/2to0/1 0/1to0/0 0/0to0/1"/>
    </vehicle>
    <vehicle id="70" depart="7.00" departLane="best">
        <route edges="2/0to2/1 2/1to1/1 1/1to0/1 0/1to0/2 0/2to0/1"/>
    </vehicle>
    <vehicle id="71" depart="7.10" departLane="best">
        <route edges="3/1to2/1 2/1to1/1 1/1to0/1 0/1to1/1"/>
    </vehicle>
    <vehicle id="72" depart="7.20" departLane="best">
        <route edges="0/1to0/0 0/0to0/1 0/1to0/2 0/2to0/1"/>
    </vehicle>
    <vehicle id="73" depart="7.30" departLane="best">
        <route edges="2/0to1/0 1/0to1/1 1/1to2/1 2/1to3/1 3/1to3/0"/>
    </vehicle>
    <vehicle id="74" depart="7.40" departLane="best">
        <route edges="3/3to3/2 3/2to2/2 2/2to2/1 2/1to3/1"/>
    </vehicle>
    <vehicle id="75" depart="7.50" departLane="best">
        <route edges="3/1to2/1 2/1to2/2 2/2to2/3 2/3to1/3"/>
    </vehicle>
    <vehicle id="76" depart="7.60" departLane="best">
        <route edges="3/1to3/0 3/0to3/1"/>
    </vehicle>
    <vehicle id="77" depart="7.70" departLane="best">
        <route edges="2/2to1/2 1/2to1/3"/>
    </vehicle>
    <vehicle id="78" depart="7.80" departLane="best">
        <route edges="0/1to0/0 0/0to1/0 1/0to2/0 2/0to3/0"/>
    </vehicle>
    <vehicle id="79" depart="7.90" departLane="best">
        <route edges="2/2to2/1 2/1to1/1 1/1to0/1 0/1to1/1"/>
    </vehicle>
    <vehicle id="80" depart="8.00" departLane="best">
        <route edges="3/1to3/0 3/0to2/0 2/0to1/0 1/0to0/0 0/0to1/0"/>
    </vehicle>
    <vehicle id="81" depart="8.10" departLane="best">
        <route edges="0/0to0/1 0/1to1/1"/>
    </vehicle>
    <vehicle id="82" depart="8.20" departLane="best">
        <route edges="3/2to3/1 3/1to2/1 2/1to2/2"/>
    </vehicle>
    <vehicle id="83" depart="8.30" departLane="best">
        <route edges="3/2to2/2 2/2to1/2 1/2to0/2 0/2to0/1 0/1to0/0"/>
    </vehicle>
    <vehicle id="84" depart="8.40" departLane="best">
        <route edges="3/1to3/2 3/2to2/2 2/2to2/1 2/1to2/0 2/0to2/1"/>
    </vehicle>
    <vehicle id="85" depart="8.50" departLane="best">
        <route edges="0/1to0/2"/>
    </vehicle>
    <vehicle id="86" depart="8.60" departLane="best">
        <route edges="1/2to1/3 1/3to1/2 1/2to1/1 1/1to2/1 2/1to1/1"/>
    </vehicle>
    <vehicle id="87" depart="8.70" departLane="best">
        <route edges="2/0to3/0 3/0to2/0 2/0to2/1 2/1to2/2 2/2to2/3 2/3to1/3"/>
    </vehicle>
    <vehicle id="88" depart="8.80" departLane="best">
        <route edges="2/0to2/1 2/1to1/1 1/1to1/2 1/2to1/3 1/3to2/3"/>
    </vehicle>
    <vehicle id="89" depart="8.90" departLane="best">
        <route edges="2/0to2/1 2/1to3/1"/>
    </vehicle>
    <vehicle id="90" depart="9.00" departLane="best">
        <route edges="1/1to1/0 1/0to1/1 1/1to1/2 1/2to2/2 2/2to3/2 3/2to3/1"/>
    </vehicle>
    <vehicle id="91" depart="9.10" departLane="best">
        <route edges="1/1to2/1 2/1to1/1 1/1to1/2 1/2to0/2"/>
    </vehicle>
    <vehicle id="92" depart="9.20" departLane="best">
        <route edges="1/0to2/0 2/0to2/1 2/1to2/2 2/2to2/1"/>
    </vehicle>
    <vehicle id="93" depart="9.30" departLane="best">
        <route edges="1/3to2/3 2/3to1/3 1/3to0/3 0/3to0/2 0/2to0/1 0/1to0/0"/>
    </vehicle>
    <vehicle id="94" depart="9.40" departLane="best">
        <route edges="1/2to1/1 1/1to2/1 2/1to3/1 3/1to3/0"/>
    </vehicle>
    <vehicle id="95" depart="9.50" departLane="best">
        <route edges="1/2to1/1 1/1to1/0 1/0to1/1"/>
    </vehicle>
    <vehicle id="96" depart="9.60" departLane="best">
        <route edges="1/0to1/1 1/1to1/2 1/2to2/2 2/2to3/2 3/2to3/3"/>
    </vehicle>
    <vehicle id="97" depart="9.70" departLane="best">
        <route edges="2/2to2/3 2/3to1/3 1/3to0/3 0/3to1/3"/>
    </vehicle>
    <vehicle id="98" depart="9.80" departLane="best">
        <route edges="2/3to1/3 1/3to1/2 1/2to2/2 2/2to2/3"/>
    </vehicle>
    <vehicle id="99" depart="9.90" departLane="best">
        <route edges="3/1to3/2 3/2to2/2 2/2to1/2 1/2to1/1 1/1to1/2"/>
    </vehicle>
    <vehicle id="100" depart="10.00" departLane="best">
        <route edges="0/1to0/0 0/0to1/0 1/0to0/0"/>
    </vehicle>
    <vehicle id="101" depart="10.10" departLane="best">
        <route edges="1/2to0/2 0/2to1/2 1/2to1/1"/>
    </vehicle>
    <vehicle id="102" depart="10.20" departLane="best">
        <route edges="3/2to3/1 3/1to2/1 2/1to1/1 1/1to1/2 1/2to2/2"/>
    </vehicle>
    <vehicle id="103" depart="10.30" departLane="best">
        <route edges="1/3to0/3 0/3to0/2 0/2to0/1 0/1to1/1"/>
    </vehicle>
    <vehicle id="104" depart="10.40" departLane="best">
        <route edges="2/2to1/2 1/2to1/1 1/1to2/1 2/1to3/1 3/1to3/0"/>
    </vehicle>
    <vehicle id="105" depart="10.50" departLane="best">
        <route edges="0/2to0/1"/>
    </vehicle>
    <vehicle id="106" depart="10.60" departLane="best">
        <route edges="2/0to3/0 3/0to3/1 3/1to3/2"/>
    </vehicle>
    <vehicle id="107" depart="10.70" departLane="best">
        <route edges="3/0to2/0 2/0to2/1 2/1to2/2"/>
    </vehicle>
    <vehicle id="108" depart="10.80" departLane="best">
        <route edges="0/3to0/2 0/2to1/2 1/2to2/2 2/2to3/2 3/2to3/3"/>
    </vehicle>
    <vehicle id="109" depart="10.90" departLane="best">
        <route edges="0/1to1/1 1/1to0/1 0/1to0/2 0/2to0/1"/>
    </vehicle>
    <vehicle id="110" depart="11.00" departLane="best">
        <route edges="1/2to0/2 0/2to1/2 1/2to2/2"/>
    </vehicle>
    <vehicle id="111" depart="11.10" departLane="best">
        <route edges="3/0to2/0 2/0to1/0"/>
    </vehicle>
    <vehicle id="112" depart="11.20" departLane="best">
        <route edges="1/2to1/1 1/1to1/2 1/2to0/2"/>
    </vehicle>
    <vehicle id="113" depart="11.30" departLane="best">
        <route edges="3/3to2/3 2/3to2/2 2/2to2/1 2/1to2/0 2/0to3/0 3/0to2/0"/>
    </vehicle>
    <vehicle id="114" depart="11.40" departLane="best">
        <route edges="2/3to3/3 3/3to2/3 2/3to1/3 1/3to0/3 0/3to0/2 0/2to0/1 0/1to0/0"/>
    </vehicle>
    <vehicle id="115" depart="11.50" departLane="best">
        <route edges="1/0to0/0 0/0to0/1 0/1to1/1 1/1to1/2"/>
    </vehicle>
    <vehicle id="116" depart="11.60" departLane="best">
        <route edges="1/2to2/2 2/2to1/2 1/2to0/2 0/2to0/1"/>
    </vehicle>
    <vehicle id="117" depart="11.70" departLane="best">
        <route edges="3/2to3/1 3/1to3/2"/>
    </vehicle>
    <vehicle id="118" depart="11.80" departLane="best">
        <route edges="1/0to2/0 2/0to1/0"/>
    </vehicle>
    <vehicle id="119" depart="11.90" departLane="best">
        <route edges="1/1to2/1 2/1to2/0"/>
    </vehicle>
    <vehicle id="120" depart="12.00" departLane="best">
        <route edges="2/2to1/2 1/2to1/3 1/3to2/3 2/3to3/3 3/3to2/3"/>
    </vehicle>
    <vehicle id="121" depart="12.10" departLane="best">
        <route edges="1/0to2/0 2/0to1/0 1/0to0/0 0/0to0/1 0/1to0/2"/>
    </vehicle>
    <vehicle id="122" depart="12.20" departLane="best">
        <route edges="2/1to2/2 2/2to1/2 1/2to1/1 1/1to0/1"/>
    </vehicle>
    <vehicle id="123" depart="12.30" departLane="best">
        <route edges="3/2to3/1 3/1to2/1 2/1to2/0 2/0to2/1"/>
    </vehicle>
    <vehicle id="124" depart="12.40" departLane="best">
        <route edges="2/2to1/2 1/2to1/3 1/3to2/3 2/3to1/3"/>
    </vehicle>
    <vehicle id="125" depart="12.50" departLane="best">
        <route edges="0/0to1/0 1/0to1/1 1/1to2/1"/>
    </vehicle>
    <vehicle id="126" depart="12.60" departLane="best">
        <route edges="3/1to3/2 3/2to3/3 3/3to3/2"/>
    </vehicle>
    <vehicle id="127" depart="12.70" departLane="best">
        <route edges="2/3to3/3 3/3to3/2"/>
    </vehicle>
    <vehicle id="128" depart="12.80" departLane="best">
        <route edges="2/0to2/1 2/1to2/0"/>
    </vehicle>
    <vehicle id="129" depart="12.90" departLane="best">
        <route edges="1/2to0/2 0/2to0/1 0/1to0/0 0/0to1/0 1/0to1/1"/>
    </vehicle>
    <vehicle id="130" depart="13.00" departLane="best">
        <route edges="1/3to0/3 0/3to0/2 0/2to1/2 1/2to1/3"/>
    </vehicle>
    <vehicle id="131" depart="13.10" departLane="best">
        <route edges="2/1to2/2 2/2to1/2 1/2to1/1 1/1to1/0 1/0to1/1"/>
    </vehicle>
    <vehicle id="132" depart="13.20" departLane="best">
        <route edges="3/2to3/1 3/1to2/1 2/1to1/1 1/1to1/0 1/0to0/0"/>
    </vehicle>
    <vehicle id="133" depart="13.30" departLane="best">
        <route edges="1/3to1/2 1/2to1/1 1/1to2/1 2/1to2/2"/>
    </vehicle>
    <vehicle id="134" depart="13.40" departLane="best">
        <route edges="1/1to1/2 1/2to2/2 2/2to3/2 3/2to3/1"/>
    </vehicle>
    <vehicle id="135" depart="13.50" departLane="best">
        <route edges="2/1to3/1 3/1to2/1 2/1to1/1 1/1to0/1 0/1to0/2 0/2to0/3 0/3to0/2"/>
    </vehicle>
    <vehicle id="136" depart="13.60" departLane="best">
        <route edges="3/0to3/1 3/1to3/2"/>
    </vehicle>
    <vehicle id="137" depart="13.70" departLane="best">
        <route edges="0/3to1/3 1/3to1/2 1/2to0/2"/>
    </vehicle>
    <vehicle id="138" depart="13.80" departLane="best">
        <route edges="2/0to2/1 2/1to2/2 2/2to3/2 3/2to3/1"/>
    </vehicle>
    <vehicle id="139" depart="13.90" departLane="best">
        <route edges="2/0to2/1 2/1to2/2 2/2to3/2 3/2to3/1"/>
    </vehicle>
    <vehicle id="140" depart="14.00" departLane="best">
        <route edges="1/1to0/1 0/1to0/2 0/2to1/2 1/2to0/2"/>
    </vehicle>
    <vehicle id="141" depart="14.10" departLane="best">
        <route edges="1/1to2/1 2/1to1/1 1/1to1/2 1/2to2/2"/>
    </vehicle>
    <vehicle id="142" depart="14.20" departLane="best">
        <route edges="1/2to1/3 1/3to1/2 1/2to1/1 1/1to2/1 2/1to3/1 3/1to2/1"/>
    </vehicle>
    <vehicle id="143" depart="14.30" departLane="best">
        <route edges="2/2to2/3 2/3to1/3 1/3to1/2 1/2to1/1 1/1to1/0"/>
    </vehicle>
    <vehicle id="144" depart="14.40" departLane="best">
        <route edges="1/1to1/0 1/0to1/1 1/1to1/2 1/2to2/2 2/2to1/2"/>
    </vehicle>
    <vehicle id="145" depart="14.50" departLane="best">
        <route edges="3/2to3/3 3/3to2/3 2/3to2/2 2/2to2/1 2/1to2/0"/>
    </vehicle>
    <vehicle id="146" depart="14.60" departLane="best">
        <route edges="3/0to3/1 3/1to2/1 2/1to1/1 1/1to0/1 0/1to0/2 0/2to0/3 0/3to0/2"/>
    </vehicle>
    <vehicle id="147" depart="14.70" departLane="best">
        <route edges="1/1to1/2 1/2to0/2 0/2to0/1 0/1to1/1"/>
    </vehicle>
    <vehicle id="148" depart="14.80" departLane="best">
        <route edges="1/2to1/1 1/1to1/2 1/2to2/2"/>
    </vehicle>
    <vehicle id="149" depart="14.90" departLane="best">
        <route edges="1/0to1/1 1/1to2/1 2/1to1/1"/>
    </vehicle>
    <vehicle id="150" depart="15.00" departLane="best">
        <route edges="2/1to2/0 2/0to3/0 3/0to3/1"/>
    </vehicle>
    <vehicle id="151" depart="15.10" departLane="best">
        <route edges="2/1to3/1 3/1to2/1 2/1to1/1 1/1to0/1"/>
    </vehicle>
    <vehicle id="152" depart="15.20" departLane="best">
        <route edges="3/3to3/2 3/2to3/1 3/1to3/0"/>
    </vehicle>
    <vehicle id="153" depart="15.30" departLane="best">
        <route edges="2/2to2/3 2/3to1/3"/>
    </vehicle>
    <vehicle id="154" depart="15.40" departLane="best">
        <route edges="0/1to1/1 1/1to0/1 0/1to0/0 0/0to1/0"/>
    </vehicle>
    <vehicle id="155" depart="15.50" departLane="best">
        <route edges="0/3to0/2 0/2to0/3 0/3to1/3 1/3to2/3 2/3to2/2"/>
    </vehicle>
    <vehicle id="156" depart="15.60" departLane="best">
        <route edges="1/2to2/2 2/2to3/2 3/2to3/1"/>
    </vehicle>
    <vehicle id="157" depart="15.70" departLane="best">
        <route edges="1/3to2/3 2/3to1/3 1/3to1/2 1/2to0/2"/>
    </vehicle>
    <vehicle id="158" depart="15.80" departLane="best">
        <route edges="0/0to1/0 1/0to2/0 2/0to2/1"/>
    </vehicle>
    <vehicle id="159" depart="15.90" departLane="best">
        <route edges="2/1to3/1 3/1to3/2 3/2to3/3"/>
    </vehicle>
    <vehicle id="160" depart="16.00" departLane="best">
        <route edges="1/0to2/0 2/0to2/1 2/1to3/1 3/1to2/1"/>
    </vehicle>
    <vehicle id="161" depart="16.10" departLane="best">
        <route edges="2/1to3/1 3/1to2/1 2/1to2/0 2/0to1/0"/>
    </vehicle>
    <vehicle id="162" depart="16.20" departLane="best">
        <route edges="0/3to0/2 0/2to0/1 0/1to1/1 1/1to2/1 2/1to2/2"/>
    </vehicle>
    <vehicle id="163" depart="16.30" departLane="best">
        <route edges="0/2to0/3 0/3to1/3 1/3to2/3 2/3to2/2"/>
    </vehicle>
    <vehicle id="164" depart="16.40" departLane="best">
        <route edges="2/2to2/1 2/1to2/2 2/2to1/2"/>
    </vehicle>
    <vehicle id="165" depart="16.50" departLane="best">
        <route edges="0/0to0/1 0/1to0/2 0/2to1/2 1/2to1/3"/>
    </vehicle>
    <vehicle id="166" depart="16.60" departLane="best">
        <route edges="2/1to2/0 2/0to2/1 2/1to2/2 2/2to2/3 2/3to3/3 3/3to2/3"/>
    </vehicle>
    <vehicle id="167" depart="16.70" departLane="best">
        <route edges="1/3to1/2 1/2to0/2 0/2to0/1"/>
    </vehicle>
    <vehicle id="168" depart="16.80" departLane="best">
        <route edges="2/2to2/1 2/1to1/1 1/1to0/1 0/1to0/2"/>
    </vehicle>
    <vehicle id="169" depart="16.90" departLane="best">
        <route edges="2/1to2/2 2/2to2/1 2/1to3/1 3/1to2/1"/>
    </vehicle>
    <vehicle id="170" depart="17.00" departLane="best">
        <route edges="1/1to1/0 1/0to2/0 2/0to3/0 3/0to2/0"/>
    </vehicle>
    <vehicle id="171" depart="17.10" departLane="best">
        <route edges="2/2to2/1 2/1to1/1 1/1to0/1 0/1to0/0 0/0to0/1"/>
    </vehicle>
    <vehicle id="172" depart="17.20" departLane="best">
        <route edges="2/1to3/1 3/1to3/2"/>
    </vehicle>
    <vehicle id="173" depart="17.30" departLane="best">
        <route edges="0/3to0/2 0/2to1/2 1/2to2/2 2/2to2/3"/>
    </vehicle>
    <vehicle id="174" depart="17.40" departLane="best">
        <route edges="2/0to2/1 2/1to1/1 1/1to0/1 0/1to0/2 0/2to0/3 0/3to0/2"/>
    </vehicle>
    <vehicle id="175" depart="17.50" departLane="best">
        <route edges="2/2to2/3 2/3to1/3 1/3to0/3 0/3to0/2 0/2to0/1 0/1to0/0 0/0to1/0"/>
    </vehicle>
    <vehicle id="176" depart="17.60" departLane="best">
        <route edges="2/1to2/0 2/0to2/1 2/1to3/1 3/1to3/2"/>
    </vehicle>
    <vehicle id="177" depart="17.70" departLane="best">
        <route edges="3/3to2/3 2/3to2/2 2/2to2/1 2/1to2/2"/>
    </vehicle>
    <vehicle id="178" depart="17.80" departLane="best">
        <route edges="0/3to0/2 0/2to0/1 0/1to0/0 0/0to1/0 1/0to2/0 2/0to2/1"/>
    </vehicle>
    <vehicle id="179" depart="17.90" departLane="best">
        <route edges="0/2to0/3 0/3to1/3 1/3to2/3"/>
    </vehicle>
    <vehicle id="180" depart="18.00" departLane="best">
        <route edges="3/1to3/2 3/2to2/2 2/2to1/2 1/2to1/1 1/1to1/0"/>
    </vehicle>
    <vehicle id="181" depart="18.10" departLane="best">
        <route edges="0/2to0/3 0/3to0/2 0/2to0/1 0/1to1/1"/>
    </vehicle>
    <vehicle id="182" depart="18.20" departLane="best">
        <route edges="2/3to1/3 1/3to1/2 1/2to1/1 1/1to1/0 1/0to2/0 2/0to3/0"/>
    </vehicle>
    <vehicle id="183" depart="18.30" departLane="best">
        <route edges="2/3to2/2 2/2to2/1 2/1to1/1"/>
    </vehicle>
    <vehicle id="184" depart="18.40" departLane="best">
        <route edges="0/0to0/1 0/1to0/0"/>
    </vehicle>
    <vehicle id="185" depart="18.50" departLane="best">
        <route edges="0/3to0/2 0/2to0/1 0/1to0/0"/>
    </vehicle>
    <vehicle id="186" depart="18.60" departLane="best">
        <route edges="3/1to2/1 2/1to1/1 1/1to0/1 0/1to0/2 0/2to0/1"/>
    </vehicle>
    <vehicle id="187" depart="18.70" departLane="best">
        <route edges="2/1to2/2 2/2to1/2 1/2to0/2 0/2to0/3"/>
    </vehicle>
    <vehicle id="188" depart="18.80" departLane="best">
        <route edges="2/3to3/3 3/3to3/2 3/2to3/1"/>
    </vehicle>
    <vehicle id="189" depart="18.90" departLane="best">
        <route edges="2/1to1/1 1/1to1/2 1/2to2/2"/>
    </vehicle>
    <vehicle id="190" depart="19.00" departLane="best">
        <route edges="3/1to3/2 3/2to2/2 2/2to1/2 1/2to0/2 0/2to0/1"/>
    </vehicle>
    <vehicle id="191" depart="19.10" departLane="best">
        <route edges="1/2to2/2 2/2to2/1 2/1to2/0 2/0to1/0"/>
    </vehicle>
    <vehicle id="192" depart="19.20" departLane="best">
        <route edges="1/3to2/3 2/3to2/2 2/2to2/1 2/1to2/0 2/0to2/1"/>
    </vehicle>
    <vehicle id="193" depart="19.30" departLane="best">
        <route edges="1/1to1/2 1/2to2/2 2/2to1/2"/>
    </vehicle>
    <vehicle id="194" depart="19.40" departLane="best">
        <route edges="1/1to2/1 2/1to1/1 1/1to1/0"/>
    </vehicle>