<?xml version="1.0" encoding="UTF-8"?>

<!-- generated on 07/05/17 16:46:32 by SUMO duarouter Version 0.24.0
<?xml version="1.0" encoding="UTF-8"?>

<configuration xmlns:xsi="http://www.w3.org/2001/XMLSchema-instance" xsi:noNamespaceSchemaLocation="http://sumo.dlr.de/xsd/duarouterConfiguration.xsd">

    <input>
        <net-file value="input_net.net.xml"/>
        <additional-files value="newtype.add.xml"/>
        <trip-files value="newtrips.trips.xml"/>
    </input>

    <output>
        <output-file value="routes.rou.xml"/>
    </output>

    <time>
        <begin value="0"/>
        <end value="400"/>
    </time>

</configuration>
-->

<routes xmlns:xsi="http://www.w3.org/2001/XMLSchema-instance" xsi:noNamespaceSchemaLocation="http://sumo.dlr.de/xsd/routes_file.xsd">
    <vType id="BUS" guiShape="bus" color="white"/>
    <vehicle id="0" type="BUS" depart="0.00" departPos="500.00" color="white">
        <route edges="3/1to3/0"/>
        <stop lane="3/1to3/0_0" endPos="500.00" until="400.00"/>
    </vehicle>
    <vehicle id="1" type="BUS" depart="0.00" departPos="500.00" color="white">
        <route edges="2/3to2/2"/>
        <stop lane="2/3to2/2_0" endPos="500.00" until="400.00"/>
    </vehicle>
    <vehicle id="10" depart="0.00" departLane="best">
        <route edges="1/1to0/1 0/1to0/2 0/2to1/2 1/2to2/2 2/2to1/2"/>
    </vehicle>
    <vehicle id="100" depart="0.00" departLane="best">
        <route edges="2/0to1/0 1/0to0/0 0/0to0/1 0/1to0/2 0/2to0/3 0/3to0/2"/>
    </vehicle>
    <vehicle id="101" depart="0.00" departLane="best">
        <route edges="1/3to1/2 1/2to2/2 2/2to1/2"/>
    </vehicle>
    <vehicle id="102" type="BUS" depart="0.00" departPos="500.00" color="white">
        <route edges="1/2to1/3"/>
        <stop lane="1/2to1/3_0" endPos="500.00" until="400.00"/>
    </vehicle>
    <vehicle id="103" depart="0.00" departLane="best">
        <route edges="3/3to2/3 2/3to1/3 1/3to0/3 0/3to0/2 0/2to0/1 0/1to0/0 0/0to0/1"/>
    </vehicle>
    <vehicle id="104" type="BUS" depart="0.00" departPos="500.00" color="white">
        <route edges="1/1to1/0"/>
        <stop lane="1/1to1/0_0" endPos="500.00" until="400.00"/>
    </vehicle>
    <vehicle id="105" depart="0.00" departLane="best">
        <route edges="3/0to2/0 2/0to2/1 2/1to2/2 2/2to2/3"/>
    </vehicle>
    <vehicle id="106" depart="0.00" departLane="best">
        <route edges="3/1to3/2 3/2to2/2 2/2to1/2 1/2to0/2 0/2to0/1 0/1to0/2"/>
    </vehicle>
    <vehicle id="107" depart="0.00" departLane="best">
        <route edges="1/3to2/3 2/3to1/3 1/3to1/2"/>
    </vehicle>
    <vehicle id="108" depart="0.00" departLane="best">
        <route edges="0/2to0/3 0/3to1/3 1/3to2/3 2/3to3/3 3/3to3/2"/>
    </vehicle>
    <vehicle id="109" type="BUS" depart="0.00" departPos="500.00" color="white">
        <route edges="1/3to0/3"/>
        <stop lane="1/3to0/3_0" endPos="500.00" until="400.00"/>
    </vehicle>
    <vehicle id="11" type="BUS" depart="0.00" departPos="500.00" color="white">
        <route edges="0/2to0/3"/>
        <stop lane="0/2to0/3_0" endPos="500.00" until="400.00"/>
    </vehicle>
    <vehicle id="110" depart="0.00" departLane="best">
        <route edges="1/2to0/2 0/2to0/1 0/1to0/0 0/0to0/1"/>
    </vehicle>
    <vehicle id="111" depart="0.00" departLane="best">
        <route edges="0/2to1/2 1/2to1/3 1/3to2/3 2/3to3/3 3/3to3/2"/>
    </vehicle>
    <vehicle id="112" depart="0.00" departLane="best">
        <route edges="3/0to2/0 2/0to1/0 1/0to1/1 1/1to1/2 1/2to1/3 1/3to2/3"/>
    </vehicle>
    <vehicle id="113" depart="0.00" departLane="best">
        <route edges="2/1to1/1 1/1to2/1 2/1to3/1 3/1to2/1"/>
    </vehicle>
    <vehicle id="114" depart="0.00" departLane="best">
        <route edges="2/3to1/3 1/3to1/2 1/2to1/1 1/1to2/1 2/1to3/1 3/1to3/0"/>
    </vehicle>
    <vehicle id="115" depart="0.00" departLane="best">
        <route edges="0/2to1/2 1/2to1/3 1/3to2/3"/>
    </vehicle>
    <vehicle id="116" depart="0.00" departLane="best">
        <route edges="3/2to3/3 3/3to2/3 2/3to1/3 1/3to0/3 0/3to0/2 0/2to0/1 0/1to0/0 0/0to1/0"/>
    </vehicle>
    <vehicle id="117" depart="0.00" departLane="best">
        <route edges="2/0to2/1 2/1to1/1 1/1to0/1 0/1to0/2 0/2to1/2"/>
    </vehicle>
    <vehicle id="118" depart="0.00" departLane="best">
        <route edges="3/0to3/1 3/1to3/0 3/0to2/0"/>
    </vehicle>
    <vehicle id="119" depart="0.00" departLane="best">
        <route edges="0/1to1/1 1/1to1/2 1/2to2/2"/>
    </vehicle>
    <vehicle id="12" depart="0.00" departLane="best">
        <route edges="2/1to3/1 3/1to2/1 2/1to1/1 1/1to1/2 1/2to1/3 1/3to0/3"/>
    </vehicle>
    <vehicle id="120" type="BUS" depart="0.00" departPos="500.00" color="white">
        <route edges="0/1to0/2"/>
        <stop lane="0/1to0/2_0" endPos="500.00" until="400.00"/>
    </vehicle>
    <vehicle id="121" type="BUS" depart="0.00" departPos="500.00" color="white">
        <route edges="0/3to0/2"/>
        <stop lane="0/3to0/2_0" endPos="500.00" until="400.00"/>
    </vehicle>
    <vehicle id="122" type="BUS" depart="0.00" departPos="500.00" color="white">
        <route edges="1/0to2/0"/>
        <stop lane="1/0to2/0_0" endPos="500.00" until="400.00"/>
    </vehicle>
    <vehicle id="123" type="BUS" depart="0.00" departPos="500.00" color="white">
        <route edges="2/3to3/3"/>
        <stop lane="2/3to3/3_0" endPos="500.00" until="400.00"/>
    </vehicle>
    <vehicle id="124" type="BUS" depart="0.00" departPos="500.00" color="white">
        <route edges="3/2to2/2"/>
        <stop lane="3/2to2/2_0" endPos="500.00" until="400.00"/>
    </vehicle>
    <vehicle id="13" type="BUS" depart="0.00" departPos="500.00" color="white">
        <route edges="3/3to2/3"/>
        <stop lane="3/3to2/3_0" endPos="500.00" until="400.00"/>
    </vehicle>
    <vehicle id="14" type="BUS" depart="0.00" departPos="500.00" color="white">
        <route edges="3/3to3/2"/>
        <stop lane="3/3to3/2_0" endPos="500.00" until="400.00"/>
    </vehicle>
    <vehicle id="15" type="BUS" depart="0.00" departPos="500.00" color="white">
        <route edges="1/1to1/2"/>
        <stop lane="1/1to1/2_0" endPos="500.00" until="400.00"/>
    </vehicle>
    <vehicle id="16" type="BUS" depart="0.00" departPos="500.00" color="white">
        <route edges="1/2to2/2"/>
        <stop lane="1/2to2/2_0" endPos="500.00" until="400.00"/>
    </vehicle>
    <vehicle id="17" depart="0.00" departLane="best">
        <route edges="1/1to2/1 2/1to1/1 1/1to1/0"/>
    </vehicle>
    <vehicle id="18" type="BUS" depart="0.00" departPos="500.00" color="white">
        <route edges="0/0to0/1"/>
        <stop lane="0/0to0/1_0" endPos="500.00" until="400.00"/>
    </vehicle>
    <vehicle id="19" type="BUS" depart="0.00" departPos="500.00" color="white">
        <route edges="1/2to1/1"/>
        <stop lane="1/2to1/1_0" endPos="500.00" until="400.00"/>
    </vehicle>
    <vehicle id="2" type="BUS" depart="0.00" departPos="500.00" color="white">
        <route edges="1/1to2/1"/>
        <stop lane="1/1to2/1_0" endPos="500.00" until="400.00"/>
    </vehicle>
    <vehicle id="20" depart="0.00" departLane="best">
        <route edges="1/1to0/1 0/1to0/2 0/2to1/2 1/2to2/2 2/2to3/2 3/2to3/1"/>
    </vehicle>
    <vehicle id="21" type="BUS" depart="0.00" departPos="500.00" color="white">
        <route edges="2/0to3/0"/>
        <stop lane="2/0to3/0_0" endPos="500.00" until="400.00"/>
    </vehicle>
    <vehicle id="22" depart="0.00" departLane="best">
        <route edges="3/3to2/3 2/3to2/2 2/2to2/3"/>
    </vehicle>
    <vehicle id="23" type="BUS" depart="0.00" departPos="500.00" color="white">
        <route edges="2/2to3/2"/>
        <stop lane="2/2to3/2_0" endPos="500.00" until="400.00"/>
    </vehicle>
    <vehicle id="24" type="BUS" depart="0.00" departPos="500.00" color="white">
        <route edges="2/2to2/1"/>
        <stop lane="2/2to2/1_0" endPos="500.00" until="400.00"/>
    </vehicle>
    <vehicle id="25" type="BUS" depart="0.00" departPos="500.00" color="white">
        <route edges="2/2to2/3"/>
        <stop lane="2/2to2/3_0" endPos="500.00" until="400.00"/>
    </vehicle>
    <vehicle id="26" type="BUS" depart="0.00" departPos="500.00" color="white">
        <route edges="1/2to0/2"/>
        <stop lane="1/2to0/2_0" endPos="500.00" until="400.00"/>
    </vehicle>
    <vehicle id="27" depart="0.00" departLane="best">
        <route edges="2/2to3/2 3/2to3/1"/>
    </vehicle>
    <vehicle id="28" type="BUS" depart="0.00" departPos="500.00" color="white">
        <route edges="3/0to2/0"/>
        <stop lane="3/0to2/0_0" endPos="500.00" until="400.00"/>
    </vehicle>
    <vehicle id="29" depart="0.00" departLane="best">
        <route edges="1/1to2/1 2/1to1/1 1/1to1/2 1/2to1/3"/>
    </vehicle>
    <vehicle id="3" type="BUS" depart="0.00" departPos="500.00" color="white">
        <route edges="0/1to0/0"/>
        <stop lane="0/1to0/0_0" endPos="500.00" until="400.00"/>
    </vehicle>
    <vehicle id="30" depart="0.00" departLane="best">
        <route edges="2/2to2/1 2/1to2/2 2/2to2/3 2/3to3/3 3/3to3/2"/>
    </vehicle>
    <vehicle id="31" depart="0.00" departLane="best">
        <route edges="1/3to2/3 2/3to1/3 1/3to0/3 0/3to0/2 0/2to0/1"/>
    </vehicle>
    <vehicle id="32" type="BUS" depart="0.00" departPos="500.00" color="white">
        <route edges="0/1to1/1"/>
        <stop lane="0/1to1/1_0" endPos="500.00" until="400.00"/>
    </vehicle>
    <vehicle id="33" depart="0.00" departLane="best">
        <route edges="0/1to0/0 0/0to0/1 0/1to0/2 0/2to1/2 1/2to0/2"/>
    </vehicle>
    <vehicle id="34" type="BUS" depart="0.00" departPos="500.00" color="white">
        <route edges="0/0to1/0"/>
        <stop lane="0/0to1/0_0" endPos="500.00" until="400.00"/>
    </vehicle>
    <vehicle id="35" type="BUS" depart="0.00" departPos="500.00" color="white">
        <route edges="0/3to1/3"/>
        <stop lane="0/3to1/3_0" endPos="500.00" until="400.00"/>
    </vehicle>
    <vehicle id="36" type="BUS" depart="0.00" departPos="500.00" color="white">
        <route edges="3/1to2/1"/>
        <stop lane="3/1to2/1_0" endPos="500.00" until="400.00"/>
    </vehicle>
    <vehicle id="37" depart="0.00" departLane="best">
        <route edges="0/0to1/0 1/0to1/1 1/1to1/2 1/2to1/3 1/3to2/3"/>
    </vehicle>
    <vehicle id="38" depart="0.00" departLane="best">
        <route edges="1/2to2/2 2/2to1/2 1/2to1/1 1/1to0/1"/>
    </vehicle>
    <vehicle id="39" depart="0.00" departLane="best">
        <route edges="2/3to2/2 2/2to2/3"/>
    </vehicle>
    <vehicle id="4" type="BUS" depart="0.00" departPos="500.00" color="white">
        <route edges="3/1to3/2"/>
        <stop lane="3/1to3/2_0" endPos="500.00" until="400.00"/>
    </vehicle>
    <vehicle id="40" depart="0.00" departLane="best">
        <route edges="1/2to2/2 2/2to1/2 1/2to1/1"/>
    </vehicle>
    <vehicle id="41" type="BUS" depart="0.00" departPos="500.00" color="white">
        <route edges="0/2to1/2"/>
        <stop lane="0/2to1/2_0" endPos="500.00" until="400.00"/>
    </vehicle>
    <vehicle id="42" type="BUS" depart="0.00" departPos="500.00" color="white">
        <route edges="1/0to1/1"/>
        <stop lane="1/0to1/1_0" endPos="500.00" until="400.00"/>
    </vehicle>
    <vehicle id="43" type="BUS" depart="0.00" departPos="500.00" color="white">
        <route edges="2/1to2/0"/>
        <stop lane="2/1to2/0_0" endPos="500.00" until="400.00"/>
    </vehicle>
    <vehicle id="44" depart="0.00" departLane="best">
        <route edges="1/1to1/2 1/2to2/2 2/2to1/2"/>
    </vehicle>
    <vehicle id="45" depart="0.00" departLane="best">
        <route edges="2/1to3/1 3/1to2/1 2/1to2/0 2/0to1/0"/>
    </vehicle>
    <vehicle id="46" type="BUS" depart="0.00" departPos="500.00" color="white">
        <route edges="2/1to1/1"/>
        <stop lane="2/1to1/1_0" endPos="500.00" until="400.00"/>
    </vehicle>
    <vehicle id="47" depart="0.00" departLane="best">
        <route edges="0/0to1/0 1/0to1/1 1/1to1/2 1/2to1/3 1/3to2/3"/>
    </vehicle>
    <vehicle id="48" type="BUS" depart="0.00" departPos="500.00" color="white">
        <route edges="2/0to1/0"/>
        <stop lane="2/0to1/0_0" endPos="500.00" until="400.00"/>
    </vehicle>
    <vehicle id="49" type="BUS" depart="0.00" departPos="500.00" color="white">
        <route edges="2/0to2/1"/>
        <stop lane="2/0to2/1_0" endPos="500.00" until="400.00"/>
    </vehicle>
    <vehicle id="5" type="BUS" depart="0.00" departPos="500.00" color="white">
        <route edges="2/1to3/1"/>
        <stop lane="2/1to3/1_0" endPos="500.00" until="400.00"/>
    </vehicle>
    <vehicle id="50" depart="0.00" departLane="best">
        <route edges="2/1to3/1 3/1to2/1 2/1to1/1 1/1to0/1 0/1to0/2 0/2to0/3"/>
    </vehicle>
    <vehicle id="51" depart="0.00" departLane="best">
        <route edges="2/1to3/1 3/1to3/2 3/2to2/2"/>
    </vehicle>
    <vehicle id="52" type="BUS" depart="0.00" departPos="500.00" color="white">
        <route edges="2/2to1/2"/>
        <stop lane="2/2to1/2_0" endPos="500.00" until="400.00"/>
    </vehicle>
    <vehicle id="53" depart="0.00" departLane="best">
        <route edges="3/3to3/2 3/2to2/2 2/2to2/1 2/1to3/1"/>
    </vehicle>
    <vehicle id="54" depart="0.00" departLane="best">
        <route edges="3/3to3/2 3/2to2/2 2/2to2/1 2/1to2/0 2/0to3/0"/>
    </vehicle>
    <vehicle id="55" depart="0.00" departLane="best">
        <route edges="3/1to3/0 3/0to2/0 2/0to2/1 2/1to2/2 2/2to2/3 2/3to2/2"/>
    </vehicle>
    <vehicle id="56" depart="0.00" departLane="best">
        <route edges="2/2to2/1 2/1to1/1 1/1to1/2 1/2to1/3 1/3to0/3"/>
    </vehicle>
    <vehicle id="57" depart="0.00" departLane="best">
        <route edges="2/2to2/3 2/3to1/3 1/3to0/3 0/3to0/2 0/2to0/1 0/1to0/0 0/0to1/0"/>
    </vehicle>
    <vehicle id="58" depart="0.00" departLane="best">
        <route edges="2/1to1/1 1/1to1/2 1/2to1/3 1/3to0/3"/>
    </vehicle>
    <vehicle id="59" type="BUS" depart="0.00" departPos="500.00" color="white">
        <route edges="2/1to2/2"/>
        <stop lane="2/1to2/2_0" endPos="500.00" until="400.00"/>
    </vehicle>
    <vehicle id="6" type="BUS" depart="0.00" departPos="500.00" color="white">
        <route edges="1/3to2/3"/>
        <stop lane="1/3to2/3_0" endPos="500.00" until="400.00"/>
    </vehicle>
    <vehicle id="60" depart="0.00" departLane="best">
        <route edges="3/1to3/2 3/2to2/2 2/2to1/2 1/2to0/2 0/2to0/1 0/1to0/2"/>
    </vehicle>
    <vehicle id="61" depart="0.00" departLane="best">
        <route edges="3/3to2/3 2/3to2/2 2/2to3/2 3/2to2/2"/>
    </vehicle>
    <vehicle id="62" type="BUS" depart="0.00" departPos="500.00" color="white">
        <route edges="3/2to3/1"/>
        <stop lane="3/2to3/1_0" endPos="500.00" until="400.00"/>
    </vehicle>
    <vehicle id="63" depart="0.00" departLane="best">
        <route edges="3/1to3/2 3/2to3/1 3/1to3/0 3/0to3/1"/>
    </vehicle>
    <vehicle id="64" type="BUS" depart="0.00" departPos="500.00" color="white">
        <route edges="2/3to1/3"/>
        <stop lane="2/3to1/3_0" endPos="500.00" until="400.00"/>
    </vehicle>
    <vehicle id="65" depart="0.00" departLane="best">
        <route edges="3/3to3/2 3/2to2/2 2/2to1/2 1/2to1/3 1/3to2/3"/>
    </vehicle>
    <vehicle id="66" depart="0.00" departLane="best">
        <route edges="1/2to0/2 0/2to0/3 0/3to1/3"/>
    </vehicle>
    <vehicle id="67" depart="0.00" departLane="best">
        <route edges="2/2to1/2 1/2to0/2 0/2to0/3 0/3to0/2"/>
    </vehicle>
    <vehicle id="68" depart="0.00" departLane="best">
        <route edges="1/2to1/1 1/1to0/1 0/1to0/0"/>
    </vehicle>
    <vehicle id="69" depart="0.00" departLane="best">
        <route edges="0/0to0/1 0/1to1/1 1/1to2/1 2/1to3/1 3/1to3/0"/>
    </vehicle>
    <vehicle id="7" depart="0.00" departLane="best">
        <route edges="3/1to3/0 3/0to3/1 3/1to3/2"/>
    </vehicle>
    <vehicle id="70" depart="0.00" departLane="best">
        <route edges="1/2to0/2 0/2to0/3 0/3to1/3 1/3to2/3 2/3to1/3"/>
    </vehicle>
    <vehicle id="71" depart="0.00" departLane="best">
        <route edges="2/3to2/2 2/2to1/2 1/2to0/2 0/2to0/3 0/3to0/2"/>
    </vehicle>
    <vehicle id="72" depart="0.00" departLane="best">
        <route edges="0/1to1/1 1/1to0/1 0/1to0/0 0/0to0/1"/>
    </vehicle>
    <vehicle id="73" type="BUS" depart="0.00" departPos="500.00" color="white">
        <route edges="3/0to3/1"/>
        <stop lane="3/0to3/1_0" endPos="500.00" until="400.00"/>
    </vehicle>
    <vehicle id="74" depart="0.00" departLane="best">
        <route edges="3/0to3/1 3/1to2/1"/>
    </vehicle>
    <vehicle id="75" depart="0.00" departLane="best">
        <route edges="2/1to2/2 2/2to2/1 2/1to3/1 3/1to3/0"/>
    </vehicle>
    <vehicle id="76" depart="0.00" departLane="best">
        <route edges="2/3to1/3 1/3to1/2 1/2to2/2 2/2to3/2"/>
    </vehicle>
    <vehicle id="77" depart="0.00" departLane="best">
        <route edges="0/2to0/3 0/3to1/3 1/3to2/3"/>
    </vehicle>
    <vehicle id="78" depart="0.00" departLane="best">
        <route edges="1/1to1/2 1/2to1/1 1/1to2/1 2/1to1/1"/>
    </vehicle>
    <vehicle id="79" type="BUS" depart="0.00" departPos="500.00" color="white">
        <route edges="0/2to0/1"/>
        <stop lane="0/2to0/1_0" endPos="500.00" until="400.00"/>
    </vehicle>
    <vehicle id="8" depart="0.00" departLane="best">
        <route edges="3/1to3/0 3/0to2/0 2/0to1/0"/>
    </vehicle>
    <vehicle id="80" type="BUS" depart="0.00" departPos="500.00" color="white">
        <route edges="1/3to1/2"/>
        <stop lane="1/3to1/2_0" endPos="500.00" until="400.00"/>
    </vehicle>
    <vehicle id="81" depart="0.00" departLane="best">
        <route edges="3/1to3/2 3/2to2/2 2/2to1/2 1/2to1/1 1/1to2/1"/>
    </vehicle>
    <vehicle id="82" depart="0.00" departLane="best">
        <route edges="2/2to2/3 2/3to1/3"/>
    </vehicle>
    <vehicle id="83" depart="0.00" departLane="best">
        <route edges="2/3to1/3 1/3to2/3"/>
    </vehicle>
    <vehicle id="84" depart="0.00" departLane="best">
        <route edges="2/1to1/1 1/1to1/2"/>
    </vehicle>
    <vehicle id="85" depart="0.00" departLane="best">
        <route edges="3/1to2/1 2/1to1/1 1/1to1/2 1/2to2/2"/>
    </vehicle>
    <vehicle id="86" depart="0.00" departLane="best">
        <route edges="0/2to0/1 0/1to0/0 0/0to1/0 1/0to2/0 2/0to1/0"/>
    </vehicle>
    <vehicle id="87" depart="0.00" departLane="best">
        <route edges="1/1to2/1 2/1to2/2 2/2to2/3 2/3to2/2"/>
    </vehicle>
    <vehicle id="88" type="BUS" depart="0.00" departPos="500.00" color="white">
        <route edges="3/2to3/3"/>
        <stop lane="3/2to3/3_0" endPos="500.00" until="400.00"/>
    </vehicle>
    <vehicle id="89" depart="0.00" departLane="best">
        <route edges="1/2to0/2 0/2to0/1 0/1to1/1 1/1to1/2"/>
    </vehicle>
    <vehicle id="9" type="BUS" depart="0.00" departPos="500.00" color="white">
        <route edges="1/1to0/1"/>
        <stop lane="1/1to0/1_0" endPos="500.00" until="400.00"/>
    </vehicle>
    <vehicle id="90" depart="0.00" departLane="best">
        <route edges="2/0to3/0 3/0to2/0 2/0to1/0 1/0to1/1"/>
    </vehicle>
    <vehicle id="91" type="BUS" depart="0.00" departPos="500.00" color="white">
        <route edges="1/0to0/0"/>
        <stop lane="1/0to0/0_0" endPos="500.00" until="400.00"/>
    </vehicle>
    <vehicle id="92" depart="0.00" departLane="best">
        <route edges="2/3to1/3 1/3to1/2 1/2to1/3"/>
    </vehicle>
    <vehicle id="93" depart="0.00" departLane="best">
        <route edges="2/2to3/2 3/2to2/2 2/2to1/2 1/2to0/2 0/2to0/1 0/1to0/0"/>
    </vehicle>
    <vehicle id="94" depart="0.00" departLane="best">
        <route edges="3/1to3/0 3/0to2/0 2/0to1/0 1/0to1/1 1/1to1/2 1/2to1/3 1/3to0/3"/>
    </vehicle>
    <vehicle id="95" depart="0.00" departLane="best">
        <route edges="1/1to1/2 1/2to2/2 2/2to2/1"/>
    </vehicle>
    <vehicle id="96" depart="0.00" departLane="best">
        <route edges="2/2to3/2 3/2to3/1"/>
    </vehicle>
    <vehicle id="97" depart="0.00" departLane="best">
        <route edges="3/1to3/2 3/2to2/2"/>
    </vehicle>
    <vehicle id="98" depart="0.00" departLane="best">
        <route edges="2/1to3/1 3/1to2/1 2/1to1/1 1/1to1/2 1/2to2/2"/>
    </vehicle>
    <vehicle id="99" depart="0.00" departLane="best">
        <route edges="2/0to2/1 2/1to2/2 2/2to2/3"/>
    </vehicle>
</routes>
