<?xml version="1.0"?>
<!-- generated on 2017-07-05 16:14:05.769000 by $Id: randomTrips.py 18756 2015-08-31 19:16:33Z behrisch $
  options: -n input_net.net.xml -e 1.2 -p 0.01 <doubleminus>trip-attributes=departLane="best"
-->
<trips>
    <trip id="0" depart="0.00" from="3/1to3/0" to="1/2to1/1" departLane="best"/>
    <trip id="1" depart="0.01" from="2/3to2/2" to="1/1to1/0" departLane="best"/>
    <trip id="2" depart="0.02" from="1/1to2/1" to="3/1to3/2" departLane="best"/>
    <trip id="3" depart="0.03" from="0/1to0/0" to="0/0to1/0" departLane="best"/>
    <trip id="4" depart="0.04" from="3/1to3/2" to="0/3to0/2" departLane="best"/>
    <trip id="5" depart="0.05" from="2/1to3/1" to="1/0to0/0" departLane="best"/>
    <trip id="6" depart="0.06" from="1/3to2/3" to="3/3to3/2" departLane="best"/>
    <trip id="7" depart="0.07" from="3/1to3/0" to="3/1to3/2" departLane="best"/>
    <trip id="8" depart="0.08" from="3/1to3/0" to="2/0to1/0" departLane="best"/>
    <trip id="9" depart="0.09" from="1/1to0/1" to="1/3to0/3" departLane="best"/>
    <trip id="10" depart="0.10" from="1/1to0/1" to="2/2to1/2" departLane="best"/>
    <trip id="11" depart="0.11" from="0/2to0/3" to="2/1to2/0" departLane="best"/>
    <trip id="12" depart="0.12" from="2/1to3/1" to="1/3to0/3" departLane="best"/>
    <trip id="13" depart="0.13" from="3/3to2/3" to="0/2to0/3" departLane="best"/>
    <trip id="14" depart="0.14" from="3/3to3/2" to="2/3to2/2" departLane="best"/>
    <trip id="15" depart="0.15" from="1/1to1/2" to="0/2to0/1" departLane="best"/>
    <trip id="16" depart="0.16" from="1/2to2/2" to="0/2to0/1" departLane="best"/>
    <trip id="17" depart="0.17" from="1/1to2/1" to="1/1to1/0" departLane="best"/>
    <trip id="18" depart="0.18" from="0/0to0/1" to="1/0to1/1" departLane="best"/>
    <trip id="19" depart="0.19" from="1/2to1/1" to="0/2to0/3" departLane="best"/>
    <trip id="20" depart="0.20" from="1/1to0/1" to="3/2to3/1" departLane="best"/>
    <trip id="21" depart="0.21" from="2/0to3/0" to="1/0to1/1" departLane="best"/>
    <trip id="22" depart="0.22" from="3/3to2/3" to="2/2to2/3" departLane="best"/>
    <trip id="23" depart="0.23" from="2/2to3/2" to="0/0to0/1" departLane="best"/>
    <trip id="24" depart="0.24" from="2/2to2/1" to="0/2to0/3" departLane="best"/>
    <trip id="25" depart="0.25" from="2/2to2/3" to="2/0to1/0" departLane="best"/>
    <trip id="26" depart="0.26" from="1/2to0/2" to="3/0to3/1" departLane="best"/>
    <trip id="27" depart="0.27" from="2/2to3/2" to="3/2to3/1" departLane="best"/>
    <trip id="28" depart="0.28" from="3/0to2/0" to="3/3to3/2" departLane="best"/>
    <trip id="29" depart="0.29" from="1/1to2/1" to="1/2to1/3" departLane="best"/>
    <trip id="30" depart="0.30" from="2/2to2/1" to="3/3to3/2" departLane="best"/>
    <trip id="31" depart="0.31" from="1/3to2/3" to="0/2to0/1" departLane="best"/>
    <trip id="32" depart="0.32" from="0/1to1/1" to="0/0to0/1" departLane="best"/>
    <trip id="33" depart="0.33" from="0/1to0/0" to="1/2to0/2" departLane="best"/>
    <trip id="34" depart="0.34" from="0/0to1/0" to="1/0to1/1" departLane="best"/>
    <trip id="35" depart="0.35" from="0/3to1/3" to="1/2to1/1" departLane="best"/>
    <trip id="36" depart="0.36" from="3/1to2/1" to="0/1to1/1" departLane="best"/>
    <trip id="37" depart="0.37" from="0/0to1/0" to="1/3to2/3" departLane="best"/>
    <trip id="38" depart="0.38" from="1/2to2/2" to="1/1to0/1" departLane="best"/>
    <trip id="39" depart="0.39" from="2/3to2/2" to="2/2to2/3" departLane="best"/>
    <trip id="40" depart="0.40" from="1/2to2/2" to="1/2to1/1" departLane="best"/>
    <trip id="41" depart="0.41" from="0/2to1/2" to="2/1to3/1" departLane="best"/>
    <trip id="42" depart="0.42" from="1/0to1/1" to="2/3to1/3" departLane="best"/>
    <trip id="43" depart="0.43" from="2/1to2/0" to="1/1to1/2" departLane="best"/>
    <trip id="44" depart="0.44" from="1/1to1/2" to="2/2to1/2" departLane="best"/>
    <trip id="45" depart="0.45" from="2/1to3/1" to="2/0to1/0" departLane="best"/>
    <trip id="46" depart="0.46" from="2/1to1/1" to="0/2to0/1" departLane="best"/>
    <trip id="47" depart="0.47" from="0/0to1/0" to="1/3to2/3" departLane="best"/>
    <trip id="48" depart="0.48" from="2/0to1/0" to="2/1to1/1" departLane="best"/>
    <trip id="49" depart="0.49" from="2/0to2/1" to="2/0to1/0" departLane="best"/>
    <trip id="50" depart="0.50" from="2/1to3/1" to="0/2to0/3" departLane="best"/>
    <trip id="51" depart="0.51" from="2/1to3/1" to="3/2to2/2" departLane="best"/>
    <trip id="52" depart="0.52" from="2/2to1/2" to="2/1to1/1" departLane="best"/>
    <trip id="53" depart="0.53" from="3/3to3/2" to="2/1to3/1" departLane="best"/>
    <trip id="54" depart="0.54" from="3/3to3/2" to="2/0to3/0" departLane="best"/>
    <trip id="55" depart="0.55" from="3/1to3/0" to="2/3to2/2" departLane="best"/>
    <trip id="56" depart="0.56" from="2/2to2/1" to="1/3to0/3" departLane="best"/>
    <trip id="57" depart="0.57" from="2/2to2/3" to="0/0to1/0" departLane="best"/>
    <trip id="58" depart="0.58" from="2/1to1/1" to="1/3to0/3" departLane="best"/>
    <trip id="59" depart="0.59" from="2/1to2/2" to="2/2to2/1" departLane="best"/>
    <trip id="60" depart="0.60" from="3/1to3/2" to="0/1to0/2" departLane="best"/>
    <trip id="61" depart="0.61" from="3/3to2/3" to="3/2to2/2" departLane="best"/>
    <trip id="62" depart="0.62" from="3/2to3/1" to="0/0to0/1" departLane="best"/>
    <trip id="63" depart="0.63" from="3/1to3/2" to="3/0to3/1" departLane="best"/>
    <trip id="64" depart="0.64" from="2/3to1/3" to="3/3to2/3" departLane="best"/>
    <trip id="65" depart="0.65" from="3/3to3/2" to="1/3to2/3" departLane="best"/>
    <trip id="66" depart="0.66" from="1/2to0/2" to="0/3to1/3" departLane="best"/>
    <trip id="67" depart="0.67" from="2/2to1/2" to="0/3to0/2" departLane="best"/>
    <trip id="68" depart="0.68" from="1/2to1/1" to="0/1to0/0" departLane="best"/>
    <trip id="69" depart="0.69" from="0/0to0/1" to="3/1to3/0" departLane="best"/>
    <trip id="70" depart="0.70" from="1/2to0/2" to="2/3to1/3" departLane="best"/>
    <trip id="71" depart="0.71" from="2/3to2/2" to="0/3to0/2" departLane="best"/>
    <trip id="72" depart="0.72" from="0/1to1/1" to="0/0to0/1" departLane="best"/>
    <trip id="73" depart="0.73" from="3/0to3/1" to="0/1to0/2" departLane="best"/>
    <trip id="74" depart="0.74" from="3/0to3/1" to="3/1to2/1" departLane="best"/>
    <trip id="75" depart="0.75" from="2/1to2/2" to="3/1to3/0" departLane="best"/>
    <trip id="76" depart="0.76" from="2/3to1/3" to="2/2to3/2" departLane="best"/>
    <trip id="77" depart="0.77" from="0/2to0/3" to="1/3to2/3" departLane="best"/>
    <trip id="78" depart="0.78" from="1/1to1/2" to="2/1to1/1" departLane="best"/>
    <trip id="79" depart="0.79" from="0/2to0/1" to="1/1to1/0" departLane="best"/>
    <trip id="80" depart="0.80" from="1/3to1/2" to="1/1to1/0" departLane="best"/>
    <trip id="81" depart="0.81" from="3/1to3/2" to="1/1to2/1" departLane="best"/>
    <trip id="82" depart="0.82" from="2/2to2/3" to="2/3to1/3" departLane="best"/>
    <trip id="83" depart="0.83" from="2/3to1/3" to="1/3to2/3" departLane="best"/>
    <trip id="84" depart="0.84" from="2/1to1/1" to="1/1to1/2" departLane="best"/>
    <trip id="85" depart="0.85" from="3/1to2/1" to="1/2to2/2" departLane="best"/>
    <trip id="86" depart="0.86" from="0/2to0/1" to="2/0to1/0" departLane="best"/>
    <trip id="87" depart="0.87" from="1/1to2/1" to="2/3to2/2" departLane="best"/>
    <trip id="88" depart="0.88" from="3/2to3/3" to="2/2to2/3" departLane="best"/>
    <trip id="89" depart="0.89" from="1/2to0/2" to="1/1to1/2" departLane="best"/>
    <trip id="90" depart="0.90" from="2/0to3/0" to="1/0to1/1" departLane="best"/>
    <trip id="91" depart="0.91" from="1/0to0/0" to="2/0to2/1" departLane="best"/>
    <trip id="92" depart="0.92" from="2/3to1/3" to="1/2to1/3" departLane="best"/>
    <trip id="93" depart="0.93" from="2/2to3/2" to="0/1to0/0" departLane="best"/>
    <trip id="94" depart="0.94" from="3/1to3/0" to="1/3to0/3" departLane="best"/>
    <trip id="95" depart="0.95" from="1/1to1/2" to="2/2to2/1" departLane="best"/>
    <trip id="96" depart="0.96" from="2/2to3/2" to="3/2to3/1" departLane="best"/>
    <trip id="97" depart="0.97" from="3/1to3/2" to="3/2to2/2" departLane="best"/>
    <trip id="98" depart="0.98" from="2/1to3/1" to="1/2to2/2" departLane="best"/>
    <trip id="99" depart="0.99" from="2/0to2/1" to="2/2to2/3" departLane="best"/>
    <trip id="100" depart="1.00" from="2/0to1/0" to="0/3to0/2" departLane="best"/>
    <trip id="101" depart="1.01" from="1/3to1/2" to="2/2to1/2" departLane="best"/>
    <trip id="102" depart="1.02" from="1/2to1/3" to="0/1to0/0" departLane="best"/>
    <trip id="103" depart="1.03" from="3/3to2/3" to="0/0to0/1" departLane="best"/>
    <trip id="104" depart="1.04" from="1/1to1/0" to="2/0to1/0" departLane="best"/>
    <trip id="105" depart="1.05" from="3/0to2/0" to="2/2to2/3" departLane="best"/>
    <trip id="106" depart="1.06" from="3/1to3/2" to="0/1to0/2" departLane="best"/>
    <trip id="107" depart="1.07" from="1/3to2/3" to="1/3to1/2" departLane="best"/>
    <trip id="108" depart="1.08" from="0/2to0/3" to="3/3to3/2" departLane="best"/>
    <trip id="109" depart="1.09" from="1/3to0/3" to="0/2to0/3" departLane="best"/>
    <trip id="110" depart="1.10" from="1/2to0/2" to="0/0to0/1" departLane="best"/>
    <trip id="111" depart="1.11" from="0/2to1/2" to="3/3to3/2" departLane="best"/>
    <trip id="112" depart="1.12" from="3/0to2/0" to="1/3to2/3" departLane="best"/>
    <trip id="113" depart="1.13" from="2/1to1/1" to="3/1to2/1" departLane="best"/>
    <trip id="114" depart="1.14" from="2/3to1/3" to="3/1to3/0" departLane="best"/>
    <trip id="115" depart="1.15" from="0/2to1/2" to="1/3to2/3" departLane="best"/>
    <trip id="116" depart="1.16" from="3/2to3/3" to="0/0to1/0" departLane="best"/>
    <trip id="117" depart="1.17" from="2/0to2/1" to="0/2to1/2" departLane="best"/>
    <trip id="118" depart="1.18" from="3/0to3/1" to="3/0to2/0" departLane="best"/>
    <trip id="119" depart="1.19" from="0/1to1/1" to="1/2to2/2" departLane="best"/>
</trips>
