<?xml version="1.0" encoding="UTF-8"?>

<!-- generated on 12/15/17 19:47:26 by SUMO duarouter Version 0.24.0
<?xml version="1.0" encoding="UTF-8"?>

<configuration xmlns:xsi="http://www.w3.org/2001/XMLSchema-instance" xsi:noNamespaceSchemaLocation="http://sumo.dlr.de/xsd/duarouterConfiguration.xsd">

    <input>
        <net-file value="input_net.net.xml"/>
        <additional-files value="type.add.xml"/>
        <trip-files value="trips.trips.xml"/>
    </input>

    <output>
        <output-file value="routes.rou.xml"/>
    </output>

    <time>
        <begin value="0"/>
        <end value="600"/>
    </time>

</configuration>
-->

<routes xmlns:xsi="http://www.w3.org/2001/XMLSchema-instance" xsi:noNamespaceSchemaLocation="http://sumo.dlr.de/xsd/routes_file.xsd">
    <vehicle id="0" depart="0.00" departLane="best">
        <route edges="1/2to0/2 0/2to0/1 0/1to1/1 1/1to0/1"/>
    </vehicle>
    <vType id="RSU" guiShape="bus" color="red"/>
    <vehicle id="101" type="RSU" depart="0.00" departPos="1000.00" color="red">
        <route edges="3/2to3/1"/>
        <stop lane="3/2to3/1_0" endPos="1000.00" until="550.00" parking="1"/>
    </vehicle>
    <vehicle id="102" type="RSU" depart="0.00" departPos="1000.00" color="red">
        <route edges="2/1to2/0"/>
        <stop lane="2/1to2/0_0" endPos="1000.00" until="550.00" parking="1"/>
    </vehicle>
    <vehicle id="103" type="RSU" depart="0.00" departPos="1000.00" color="red">
        <route edges="0/2to0/1"/>
        <stop lane="0/2to0/1_0" endPos="1000.00" until="550.00" parking="1"/>
    </vehicle>
    <vehicle id="104" type="RSU" depart="0.00" departPos="1000.00" color="red">
        <route edges="3/3to3/2"/>
        <stop lane="3/3to3/2_0" endPos="1000.00" until="550.00" parking="1"/>
    </vehicle>
    <vehicle id="105" type="RSU" depart="0.00" departPos="1000.00" color="red">
        <route edges="1/1to1/0"/>
        <stop lane="1/1to1/0_0" endPos="1000.00" until="550.00" parking="1"/>
    </vehicle>
    <vehicle id="106" type="RSU" depart="0.00" departPos="1000.00" color="red">
        <route edges="2/3to2/2"/>
        <stop lane="2/3to2/2_0" endPos="1000.00" until="550.00" parking="1"/>
    </vehicle>
    <vehicle id="107" type="RSU" depart="0.00" departPos="1000.00" color="red">
        <route edges="3/3to2/3"/>
        <stop lane="3/3to2/3_0" endPos="1000.00" until="550.00" parking="1"/>
    </vehicle>
    <vehicle id="108" type="RSU" depart="0.00" departPos="1000.00" color="red">
        <route edges="0/1to0/0"/>
        <stop lane="0/1to0/0_0" endPos="1000.00" until="550.00" parking="1"/>
    </vehicle>
    <vehicle id="109" type="RSU" depart="0.00" departPos="1000.00" color="red">
        <route edges="1/3to1/2"/>
        <stop lane="1/3to1/2_0" endPos="1000.00" until="550.00" parking="1"/>
    </vehicle>
    <vehicle id="110" type="RSU" depart="0.00" departPos="1000.00" color="red">
        <route edges="0/3to0/2"/>
        <stop lane="0/3to0/2_0" endPos="1000.00" until="550.00" parking="1"/>
    </vehicle>
    <vehicle id="111" type="RSU" depart="0.00" departPos="1000.00" color="red">
        <route edges="2/3to1/3"/>
        <stop lane="2/3to1/3_0" endPos="1000.00" until="550.00" parking="1"/>
    </vehicle>
    <vehicle id="112" type="RSU" depart="0.00" departPos="1000.00" color="red">
        <route edges="3/1to3/0"/>
        <stop lane="3/1to3/0_0" endPos="1000.00" until="550.00" parking="1"/>
    </vehicle>
    <vehicle id="113" type="RSU" depart="0.00" departPos="1000.00" color="red">
        <route edges="1/3to0/3"/>
        <stop lane="1/3to0/3_0" endPos="1000.00" until="550.00" parking="1"/>
    </vehicle>
    <vehicle id="114" type="RSU" depart="0.00" departPos="1000.00" color="red">
        <route edges="3/2to3/3"/>
        <stop lane="3/2to3/3_0" endPos="1000.00" until="550.00" parking="1"/>
    </vehicle>
    <vehicle id="115" type="RSU" depart="0.00" departPos="1000.00" color="red">
        <route edges="1/2to1/1"/>
        <stop lane="1/2to1/1_0" endPos="1000.00" until="550.00" parking="1"/>
    </vehicle>
    <vehicle id="116" type="RSU" depart="0.00" departPos="1000.00" color="red">
        <route edges="2/2to2/1"/>
        <stop lane="2/2to2/1_0" endPos="1000.00" until="550.00" parking="1"/>
    </vehicle>
    <vehicle id="1" depart="0.20" departLane="best">
        <route edges="0/1to0/0 0/0to1/0 1/0to2/0 2/0to2/1"/>
    </vehicle>
    <vehicle id="2" depart="0.40" departLane="best">
        <route edges="2/2to2/3 2/3to1/3 1/3to0/3 0/3to0/2 0/2to0/1 0/1to0/0 0/0to1/0"/>
    </vehicle>
    <vehicle id="3" depart="0.60" departLane="best">
        <route edges="0/0to0/1 0/1to1/1 1/1to2/1 2/1to2/0"/>
    </vehicle>
    <vehicle id="4" depart="0.80" departLane="best">
        <route edges="1/2to2/2 2/2to1/2 1/2to1/1 1/1to1/2"/>
    </vehicle>
    <vehicle id="5" depart="1.00" departLane="best">
        <route edges="2/1to1/1 1/1to0/1"/>
    </vehicle>
    <vehicle id="6" depart="1.20" departLane="best">
        <route edges="1/0to2/0 2/0to1/0 1/0to0/0 0/0to0/1"/>
    </vehicle>
    <vehicle id="7" depart="1.40" departLane="best">
        <route edges="3/1to2/1 2/1to1/1 1/1to0/1 0/1to0/2"/>
    </vehicle>
    <vehicle id="8" depart="1.60" departLane="best">
        <route edges="0/3to1/3 1/3to2/3 2/3to2/2"/>
    </vehicle>
    <vehicle id="9" depart="1.80" departLane="best">
        <route edges="2/3to2/2 2/2to1/2 1/2to1/3 1/3to1/2"/>
    </vehicle>
    <vehicle id="10" depart="2.00" departLane="best">
        <route edges="0/1to1/1 1/1to1/2 1/2to2/2 2/2to3/2 3/2to3/1"/>
    </vehicle>
    <vehicle id="11" depart="2.20" departLane="best">
        <route edges="0/2to0/1 0/1to1/1 1/1to2/1 2/1to3/1 3/1to3/2"/>
    </vehicle>
    <vehicle id="12" depart="2.40" departLane="best">
        <route edges="0/2to0/1 0/1to0/2 0/2to0/3 0/3to1/3 1/3to0/3"/>
    </vehicle>
    <vehicle id="13" depart="2.60" departLane="best">
        <route edges="1/2to1/3 1/3to2/3 2/3to2/2"/>
    </vehicle>
    <vehicle id="14" depart="2.80" departLane="best">
        <route edges="1/1to1/2"/>
    </vehicle>
    <vehicle id="15" depart="3.00" departLane="best">
        <route edges="0/1to1/1 1/1to1/0 1/0to2/0 2/0to3/0 3/0to3/1"/>
    </vehicle>
    <vehicle id="16" depart="3.20" departLane="best">
        <route edges="2/2to2/3 2/3to2/2 2/2to1/2"/>
    </vehicle>
    <vehicle id="17" depart="3.40" departLane="best">
        <route edges="1/0to1/1 1/1to1/2 1/2to2/2 2/2to1/2"/>
    </vehicle>
    <vehicle id="18" depart="3.60" departLane="best">
        <route edges="0/1to0/0 0/0to1/0 1/0to2/0 2/0to2/1"/>
    </vehicle>
    <vehicle id="19" depart="3.80" departLane="best">
        <route edges="1/1to2/1 2/1to3/1 3/1to2/1"/>
    </vehicle>
    <vehicle id="20" depart="4.00" departLane="best">
        <route edges="3/1to2/1 2/1to1/1 1/1to1/2"/>
    </vehicle>
    <vehicle id="21" depart="4.20" departLane="best">
        <route edges="3/0to3/1 3/1to3/2"/>
    </vehicle>
    <vehicle id="22" depart="4.40" departLane="best">
        <route edges="2/1to1/1 1/1to1/2 1/2to1/3 1/3to2/3 2/3to2/2"/>
    </vehicle>
    <vehicle id="23" depart="4.60" departLane="best">
        <route edges="1/2to1/1 1/1to1/2 1/2to2/2 2/2to3/2 3/2to3/3"/>
    </vehicle>
    <vehicle id="24" depart="4.80" departLane="best">
        <route edges="1/1to2/1 2/1to1/1 1/1to1/2 1/2to1/3 1/3to0/3"/>
    </vehicle>
    <vehicle id="25" depart="5.00" departLane="best">
        <route edges="0/1to0/2"/>
    </vehicle>
    <vehicle id="26" depart="5.20" departLane="best">
        <route edges="0/0to1/0 1/0to1/1 1/1to1/2 1/2to2/2 2/2to2/3"/>
    </vehicle>
    <vehicle id="27" depart="5.40" departLane="best">
        <route edges="1/3to2/3 2/3to1/3"/>
    </vehicle>
    <vehicle id="28" depart="5.60" departLane="best">
        <route edges="2/3to3/3 3/3to2/3 2/3to2/2 2/2to2/3"/>
    </vehicle>
    <vehicle id="29" depart="5.80" departLane="best">
        <route edges="0/3to1/3 1/3to1/2 1/2to1/1 1/1to1/0 1/0to2/0 2/0to1/0"/>
    </vehicle>
    <vehicle id="30" depart="6.00" departLane="best">
        <route edges="0/1to0/2 0/2to0/1 0/1to0/0"/>
    </vehicle>
    <vehicle id="31" depart="6.20" departLane="best">
        <route edges="1/0to2/0 2/0to2/1 2/1to2/2 2/2to2/3 2/3to3/3"/>
    </vehicle>
    <vehicle id="32" depart="6.40" departLane="best">
        <route edges="2/1to1/1 1/1to2/1 2/1to2/2"/>
    </vehicle>
    <vehicle id="33" depart="6.60" departLane="best">
        <route edges="1/3to0/3 0/3to0/2 0/2to0/1 0/1to1/1 1/1to2/1 2/1to3/1 3/1to3/2"/>
    </vehicle>
    <vehicle id="34" depart="6.80" departLane="best">
        <route edges="2/3to3/3 3/3to2/3"/>
    </vehicle>
    <vehicle id="35" depart="7.00" departLane="best">
        <route edges="3/2to3/3 3/3to2/3 2/3to1/3 1/3to1/2 1/2to1/1 1/1to1/0 1/0to2/0"/>
    </vehicle>
    <vehicle id="36" depart="7.20" departLane="best">
        <route edges="2/2to3/2 3/2to2/2 2/2to2/3 2/3to2/2"/>
    </vehicle>
    <vehicle id="37" depart="7.40" departLane="best">
        <route edges="2/0to1/0 1/0to0/0 0/0to0/1 0/1to0/2 0/2to0/3"/>
    </vehicle>
    <vehicle id="38" depart="7.60" departLane="best">
        <route edges="3/1to2/1 2/1to2/2 2/2to3/2 3/2to3/3"/>
    </vehicle>
    <vehicle id="39" depart="7.80" departLane="best">
        <route edges="2/2to3/2 3/2to2/2 2/2to1/2 1/2to1/1"/>
    </vehicle>
    <vehicle id="40" depart="8.00" departLane="best">
        <route edges="2/3to3/3 3/3to2/3 2/3to1/3 1/3to0/3 0/3to0/2 0/2to0/1 0/1to0/2"/>
    </vehicle>
    <vehicle id="41" depart="8.20" departLane="best">
        <route edges="1/2to1/3 1/3to1/2"/>
    </vehicle>
    <vehicle id="42" depart="8.40" departLane="best">
        <route edges="2/2to3/2 3/2to3/1 3/1to3/0"/>
    </vehicle>
    <vehicle id="43" depart="8.60" departLane="best">
        <route edges="0/2to1/2 1/2to2/2 2/2to3/2 3/2to3/3"/>
    </vehicle>
    <vehicle id="44" depart="8.80" departLane="best">
        <route edges="0/2to0/1 0/1to0/0 0/0to1/0 1/0to2/0 2/0to2/1"/>
    </vehicle>
    <vehicle id="45" depart="9.00" departLane="best">
        <route edges="3/0to2/0 2/0to1/0 1/0to0/0 0/0to0/1 0/1to0/2 0/2to0/1"/>
    </vehicle>
    <vehicle id="46" depart="9.20" departLane="best">
        <route edges="0/3to0/2 0/2to0/1 0/1to1/1 1/1to0/1"/>
    </vehicle>
    <vehicle id="47" depart="9.40" departLane="best">
        <route edges="0/0to0/1 0/1to0/2 0/2to0/3 0/3to0/2"/>
    </vehicle>
    <vehicle id="48" depart="9.60" departLane="best">
        <route edges="2/1to2/2 2/2to1/2 1/2to0/2 0/2to0/1 0/1to1/1"/>
    </vehicle>
    <vehicle id="49" depart="9.80" departLane="best">
        <route edges="2/0to3/0 3/0to2/0 2/0to2/1 2/1to2/2 2/2to2/3"/>
    </vehicle>
    <vehicle id="50" depart="10.00" departLane="best">
        <route edges="2/0to1/0 1/0to1/1 1/1to1/2 1/2to2/2"/>
    </vehicle>
    <vehicle id="51" depart="10.20" departLane="best">
        <route edges="2/1to1/1 1/1to1/2 1/2to1/3 1/3to2/3 2/3to1/3"/>
    </vehicle>
    <vehicle id="52" depart="10.40" departLane="best">
        <route edges="1/1to1/2 1/2to1/1 1/1to2/1 2/1to1/1"/>
    </vehicle>
    <vehicle id="53" depart="10.60" departLane="best">
        <route edges="3/0to3/1 3/1to2/1 2/1to2/2 2/2to2/3 2/3to1/3"/>
    </vehicle>
    <vehicle id="54" depart="10.80" departLane="best">
        <route edges="1/1to1/2 1/2to1/3 1/3to2/3 2/3to3/3"/>
    </vehicle>
    <vehicle id="55" depart="11.00" departLane="best">
        <route edges="3/3to2/3 2/3to3/3 3/3to3/2"/>
    </vehicle>
    <vehicle id="56" depart="11.20" departLane="best">
        <route edges="0/1to0/2 0/2to0/1 0/1to0/0 0/0to0/1"/>
    </vehicle>
    <vehicle id="57" depart="11.40" departLane="best">
        <route edges="3/2to3/3 3/3to2/3 2/3to1/3 1/3to0/3 0/3to0/2"/>
    </vehicle>
    <vehicle id="58" depart="11.60" departLane="best">
        <route edges="2/3to2/2 2/2to1/2 1/2to1/1 1/1to1/0 1/0to1/1"/>
    </vehicle>
    <vehicle id="59" depart="11.80" departLane="best">
        <route edges="1/0to1/1 1/1to2/1 2/1to3/1 3/1to2/1"/>
    </vehicle>
    <vehicle id="60" depart="12.00" departLane="best">
        <route edges="3/2to2/2 2/2to2/1 2/1to1/1"/>
    </vehicle>
    <vehicle id="61" depart="12.20" departLane="best">
        <route edges="1/3to2/3 2/3to2/2"/>
    </vehicle>
    <vehicle id="62" depart="12.40" departLane="best">
        <route edges="0/2to0/3 0/3to0/2 0/2to0/1 0/1to0/0 0/0to1/0 1/0to2/0 2/0to1/0"/>
    </vehicle>
    <vehicle id="63" depart="12.60" departLane="best">
        <route edges="1/1to1/0"/>
    </vehicle>
    <vehicle id="64" depart="12.80" departLane="best">
        <route edges="1/1to1/0 1/0to1/1 1/1to1/2 1/2to1/3 1/3to2/3 2/3to3/3 3/3to2/3"/>
    </vehicle>
    <vehicle id="65" depart="13.00" departLane="best">
        <route edges="0/2to1/2 1/2to2/2 2/2to3/2 3/2to3/1"/>
    </vehicle>
    <vehicle id="66" depart="13.20" departLane="best">
        <route edges="1/1to2/1 2/1to1/1 1/1to1/2 1/2to1/3 1/3to0/3"/>
    </vehicle>
    <vehicle id="67" depart="13.40" departLane="best">
        <route edges="2/0to2/1 2/1to1/1 1/1to1/2 1/2to1/3 1/3to1/2"/>
    </vehicle>
    <vehicle id="68" depart="13.60" departLane="best">
        <route edges="3/2to3/1 3/1to2/1 2/1to1/1 1/1to1/2"/>
    </vehicle>
    <vehicle id="69" depart="13.80" departLane="best">
        <route edges="2/2to2/3"/>
    </vehicle>
    <vehicle id="70" depart="14.00" departLane="best">
        <route edges="3/0to2/0 2/0to2/1 2/1to2/2 2/2to2/3 2/3to2/2"/>
    </vehicle>
    <vehicle id="71" depart="14.20" departLane="best">
        <route edges="0/2to0/3 0/3to0/2 0/2to0/1 0/1to1/1 1/1to2/1 2/1to3/1"/>
    </vehicle>
    <vehicle id="72" depart="14.40" departLane="best">
        <route edges="2/2to1/2 1/2to0/2 0/2to0/1 0/1to0/0 0/0to0/1"/>
    </vehicle>
    <vehicle id="73" depart="14.60" departLane="best">
        <route edges="3/3to3/2 3/2to2/2 2/2to1/2 1/2to1/1 1/1to1/0 1/0to0/0"/>
    </vehicle>
    <vehicle id="74" depart="14.80" departLane="best">
        <route edges="3/1to3/2 3/2to2/2 2/2to2/3 2/3to1/3"/>
    </vehicle>
    <vehicle id="75" depart="15.00" departLane="best">
        <route edges="3/3to2/3 2/3to1/3 1/3to1/2 1/2to1/1"/>
    </vehicle>
    <vehicle id="76" depart="15.20" departLane="best">
        <route edges="2/0to1/0 1/0to1/1 1/1to1/2 1/2to1/3 1/3to2/3"/>
    </vehicle>
    <vehicle id="77" depart="15.40" departLane="best">
        <route edges="1/3to0/3 0/3to1/3 1/3to2/3"/>
    </vehicle>
    <vehicle id="78" depart="15.60" departLane="best">
        <route edges="3/1to2/1 2/1to1/1 1/1to0/1 0/1to0/2 0/2to0/3 0/3to0/2"/>
    </vehicle>
    <vehicle id="79" depart="15.80" departLane="best">
        <route edges="1/3to2/3 2/3to1/3 1/3to1/2 1/2to1/1 1/1to1/0"/>
    </vehicle>
    <vehicle id="80" depart="16.00" departLane="best">
        <route edges="2/2to3/2 3/2to3/1 3/1to3/2"/>
    </vehicle>
    <vehicle id="81" depart="16.20" departLane="best">
        <route edges="1/2to0/2 0/2to0/3 0/3to1/3 1/3to2/3 2/3to3/3"/>
    </vehicle>
    <vehicle id="82" depart="16.40" departLane="best">
        <route edges="1/3to0/3 0/3to1/3"/>
    </vehicle>
    <vehicle id="83" depart="16.60" departLane="best">
        <route edges="0/0to1/0 1/0to0/0 0/0to0/1 0/1to0/2 0/2to1/2"/>
    </vehicle>
    <vehicle id="84" depart="16.80" departLane="best">
        <route edges="1/2to0/2 0/2to0/1 0/1to1/1 1/1to2/1 2/1to2/0"/>
    </vehicle>
    <vehicle id="85" depart="17.00" departLane="best">
        <route edges="1/3to0/3 0/3to0/2 0/2to0/1 0/1to1/1 1/1to2/1 2/1to3/1 3/1to3/2"/>
    </vehicle>
    <vehicle id="86" depart="17.20" departLane="best">
        <route edges="0/3to1/3 1/3to1/2 1/2to1/1 1/1to1/0 1/0to2/0 2/0to3/0 3/0to2/0"/>
    </vehicle>
    <vehicle id="87" depart="17.40" departLane="best">
        <route edges="1/2to1/3 1/3to1/2 1/2to1/1 1/1to2/1 2/1to1/1"/>
    </vehicle>
    <vehicle id="88" depart="17.60" departLane="best">
        <route edges="2/1to2/2 2/2to3/2 3/2to2/2"/>
    </vehicle>
    <vehicle id="89" depart="17.80" departLane="best">
        <route edges="1/3to0/3 0/3to0/2 0/2to0/1 0/1to0/0 0/0to1/0 1/0to1/1"/>
    </vehicle>
    <vehicle id="90" depart="18.00" departLane="best">
        <route edges="2/0to2/1 2/1to2/2 2/2to2/3 2/3to2/2"/>
    </vehicle>
    <vehicle id="91" depart="18.20" departLane="best">
        <route edges="1/0to2/0 2/0to1/0 1/0to0/0 0/0to0/1"/>
    </vehicle>
    <vehicle id="92" depart="18.40" departLane="best">
        <route edges="3/1to2/1 2/1to2/2 2/2to2/3 2/3to1/3"/>
    </vehicle>
    <vehicle id="93" depart="18.60" departLane="best">
        <route edges="3/2to3/3 3/3to3/2 3/2to3/1 3/1to3/0 3/0to3/1"/>
    </vehicle>
    <vehicle id="94" depart="18.80" departLane="best">
        <route edges="3/1to2/1 2/1to1/1 1/1to1/0 1/0to2/0"/>
    </vehicle>
    <vehicle id="95" depart="19.00" departLane="best">
        <route edges="3/3to2/3 2/3to1/3 1/3to0/3 0/3to0/2 0/2to0/3"/>
    </vehicle>
    <vehicle id="96" depart="19.20" departLane="best">
        <route edges="0/2to0/1 0/1to1/1 1/1to2/1 2/1to3/1"/>
    </vehicle>
    <vehicle id="97" depart="19.40" departLane="best">
        <route edges="0/3to1/3 1/3to1/2 1/2to1/3"/>
    </vehicle>
    <vehicle id="98" depart="19.60" departLane="best">
        <route edges="2/1to2/0"/>
    </vehicle>
    <vehicle id="99" depart="19.80" departLane="best">
        <route edges="2/1to1/1 1/1to1/2 1/2to2/2 2/2to3/2 3/2to3/1"/>
    </vehicle>
    <vehicle id="100" depart="20.00" departLane="best">
        <route edges="3/3to3/2 3/2to2/2 2/2to1/2 1/2to1/3 1/3to1/2"/>
    </vehicle>
</routes>
