<?xml version="1.0"?>
<!-- generated on 2017-12-10 16:59:25.948000 by $Id: randomTrips.py 18756 2015-08-31 19:16:33Z behrisch $
  options: -n input_net.net.xml -e 20 -p 0.2 <doubleminus>trip-attributes=departLane="best"
-->
<trips>
    <trip id="0" depart="0.00" from="1/2to0/2" to="1/1to0/1" departLane="best"/>
    <trip id="1" depart="0.20" from="0/1to0/0" to="2/0to2/1" departLane="best"/>
    <trip id="2" depart="0.40" from="2/2to2/3" to="0/0to1/0" departLane="best"/>
    <trip id="3" depart="0.60" from="0/0to0/1" to="2/1to2/0" departLane="best"/>
    <trip id="4" depart="0.80" from="1/2to2/2" to="1/1to1/2" departLane="best"/>
    <trip id="5" depart="1.00" from="2/1to1/1" to="1/1to0/1" departLane="best"/>
    <trip id="6" depart="1.20" from="1/0to2/0" to="0/0to0/1" departLane="best"/>
    <trip id="7" depart="1.40" from="3/1to2/1" to="0/1to0/2" departLane="best"/>
    <trip id="8" depart="1.60" from="0/3to1/3" to="2/3to2/2" departLane="best"/>
    <trip id="9" depart="1.80" from="2/3to2/2" to="1/3to1/2" departLane="best"/>
    <trip id="10" depart="2.00" from="0/1to1/1" to="3/2to3/1" departLane="best"/>
    <trip id="11" depart="2.20" from="0/2to0/1" to="3/1to3/2" departLane="best"/>
    <trip id="12" depart="2.40" from="0/2to0/1" to="1/3to0/3" departLane="best"/>
    <trip id="13" depart="2.60" from="1/2to1/3" to="2/3to2/2" departLane="best"/>
    <trip id="14" depart="2.80" from="1/1to1/2" to="1/1to1/2" departLane="best"/>
    <trip id="15" depart="3.00" from="0/1to1/1" to="3/0to3/1" departLane="best"/>
    <trip id="16" depart="3.20" from="2/2to2/3" to="2/2to1/2" departLane="best"/>
    <trip id="17" depart="3.40" from="1/0to1/1" to="2/2to1/2" departLane="best"/>
    <trip id="18" depart="3.60" from="0/1to0/0" to="2/0to2/1" departLane="best"/>
    <trip id="19" depart="3.80" from="1/1to2/1" to="3/1to2/1" departLane="best"/>
    <trip id="20" depart="4.00" from="3/1to2/1" to="1/1to1/2" departLane="best"/>
    <trip id="21" depart="4.20" from="3/0to3/1" to="3/1to3/2" departLane="best"/>
    <trip id="22" depart="4.40" from="2/1to1/1" to="2/3to2/2" departLane="best"/>
    <trip id="23" depart="4.60" from="1/2to1/1" to="3/2to3/3" departLane="best"/>
    <trip id="24" depart="4.80" from="1/1to2/1" to="1/3to0/3" departLane="best"/>
    <trip id="25" depart="5.00" from="0/1to0/2" to="0/1to0/2" departLane="best"/>
    <trip id="26" depart="5.20" from="0/0to1/0" to="2/2to2/3" departLane="best"/>
    <trip id="27" depart="5.40" from="1/3to2/3" to="2/3to1/3" departLane="best"/>
    <trip id="28" depart="5.60" from="2/3to3/3" to="2/2to2/3" departLane="best"/>
    <trip id="29" depart="5.80" from="0/3to1/3" to="2/0to1/0" departLane="best"/>
    <trip id="30" depart="6.00" from="0/1to0/2" to="0/1to0/0" departLane="best"/>
    <trip id="31" depart="6.20" from="1/0to2/0" to="2/3to3/3" departLane="best"/>
    <trip id="32" depart="6.40" from="2/1to1/1" to="2/1to2/2" departLane="best"/>
    <trip id="33" depart="6.60" from="1/3to0/3" to="3/1to3/2" departLane="best"/>
    <trip id="34" depart="6.80" from="2/3to3/3" to="3/3to2/3" departLane="best"/>
    <trip id="35" depart="7.00" from="3/2to3/3" to="1/0to2/0" departLane="best"/>
    <trip id="36" depart="7.20" from="2/2to3/2" to="2/3to2/2" departLane="best"/>
    <trip id="37" depart="7.40" from="2/0to1/0" to="0/2to0/3" departLane="best"/>
    <trip id="38" depart="7.60" from="3/1to2/1" to="3/2to3/3" departLane="best"/>
    <trip id="39" depart="7.80" from="2/2to3/2" to="1/2to1/1" departLane="best"/>
    <trip id="40" depart="8.00" from="2/3to3/3" to="0/1to0/2" departLane="best"/>
    <trip id="41" depart="8.20" from="1/2to1/3" to="1/3to1/2" departLane="best"/>
    <trip id="42" depart="8.40" from="2/2to3/2" to="3/1to3/0" departLane="best"/>
    <trip id="43" depart="8.60" from="0/2to1/2" to="3/2to3/3" departLane="best"/>
    <trip id="44" depart="8.80" from="0/2to0/1" to="2/0to2/1" departLane="best"/>
    <trip id="45" depart="9.00" from="3/0to2/0" to="0/2to0/1" departLane="best"/>
    <trip id="46" depart="9.20" from="0/3to0/2" to="1/1to0/1" departLane="best"/>
    <trip id="47" depart="9.40" from="0/0to0/1" to="0/3to0/2" departLane="best"/>
    <trip id="48" depart="9.60" from="2/1to2/2" to="0/1to1/1" departLane="best"/>
    <trip id="49" depart="9.80" from="2/0to3/0" to="2/2to2/3" departLane="best"/>
    <trip id="50" depart="10.00" from="2/0to1/0" to="1/2to2/2" departLane="best"/>
    <trip id="51" depart="10.20" from="2/1to1/1" to="2/3to1/3" departLane="best"/>
    <trip id="52" depart="10.40" from="1/1to1/2" to="2/1to1/1" departLane="best"/>
    <trip id="53" depart="10.60" from="3/0to3/1" to="2/3to1/3" departLane="best"/>
    <trip id="54" depart="10.80" from="1/1to1/2" to="2/3to3/3" departLane="best"/>
    <trip id="55" depart="11.00" from="3/3to2/3" to="3/3to3/2" departLane="best"/>
    <trip id="56" depart="11.20" from="0/1to0/2" to="0/0to0/1" departLane="best"/>
    <trip id="57" depart="11.40" from="3/2to3/3" to="0/3to0/2" departLane="best"/>
    <trip id="58" depart="11.60" from="2/3to2/2" to="1/0to1/1" departLane="best"/>
    <trip id="59" depart="11.80" from="1/0to1/1" to="3/1to2/1" departLane="best"/>
    <trip id="60" depart="12.00" from="3/2to2/2" to="2/1to1/1" departLane="best"/>
    <trip id="61" depart="12.20" from="1/3to2/3" to="2/3to2/2" departLane="best"/>
    <trip id="62" depart="12.40" from="0/2to0/3" to="2/0to1/0" departLane="best"/>
    <trip id="63" depart="12.60" from="1/1to1/0" to="1/1to1/0" departLane="best"/>
    <trip id="64" depart="12.80" from="1/1to1/0" to="3/3to2/3" departLane="best"/>
    <trip id="65" depart="13.00" from="0/2to1/2" to="3/2to3/1" departLane="best"/>
    <trip id="66" depart="13.20" from="1/1to2/1" to="1/3to0/3" departLane="best"/>
    <trip id="67" depart="13.40" from="2/0to2/1" to="1/3to1/2" departLane="best"/>
    <trip id="68" depart="13.60" from="3/2to3/1" to="1/1to1/2" departLane="best"/>
    <trip id="69" depart="13.80" from="2/2to2/3" to="2/2to2/3" departLane="best"/>
    <trip id="70" depart="14.00" from="3/0to2/0" to="2/3to2/2" departLane="best"/>
    <trip id="71" depart="14.20" from="0/2to0/3" to="2/1to3/1" departLane="best"/>
    <trip id="72" depart="14.40" from="2/2to1/2" to="0/0to0/1" departLane="best"/>
    <trip id="73" depart="14.60" from="3/3to3/2" to="1/0to0/0" departLane="best"/>
    <trip id="74" depart="14.80" from="3/1to3/2" to="2/3to1/3" departLane="best"/>
    <trip id="75" depart="15.00" from="3/3to2/3" to="1/2to1/1" departLane="best"/>
    <trip id="76" depart="15.20" from="2/0to1/0" to="1/3to2/3" departLane="best"/>
    <trip id="77" depart="15.40" from="1/3to0/3" to="1/3to2/3" departLane="best"/>
    <trip id="78" depart="15.60" from="3/1to2/1" to="0/3to0/2" departLane="best"/>
    <trip id="79" depart="15.80" from="1/3to2/3" to="1/1to1/0" departLane="best"/>
    <trip id="80" depart="16.00" from="2/2to3/2" to="3/1to3/2" departLane="best"/>
    <trip id="81" depart="16.20" from="1/2to0/2" to="2/3to3/3" departLane="best"/>
    <trip id="82" depart="16.40" from="1/3to0/3" to="0/3to1/3" departLane="best"/>
    <trip id="83" depart="16.60" from="0/0to1/0" to="0/2to1/2" departLane="best"/>
    <trip id="84" depart="16.80" from="1/2to0/2" to="2/1to2/0" departLane="best"/>
    <trip id="85" depart="17.00" from="1/3to0/3" to="3/1to3/2" departLane="best"/>
    <trip id="86" depart="17.20" from="0/3to1/3" to="3/0to2/0" departLane="best"/>
    <trip id="87" depart="17.40" from="1/2to1/3" to="2/1to1/1" departLane="best"/>
    <trip id="88" depart="17.60" from="2/1to2/2" to="3/2to2/2" departLane="best"/>
    <trip id="89" depart="17.80" from="1/3to0/3" to="1/0to1/1" departLane="best"/>
    <trip id="90" depart="18.00" from="2/0to2/1" to="2/3to2/2" departLane="best"/>
    <trip id="91" depart="18.20" from="1/0to2/0" to="0/0to0/1" departLane="best"/>
    <trip id="92" depart="18.40" from="3/1to2/1" to="2/3to1/3" departLane="best"/>
    <trip id="93" depart="18.60" from="3/2to3/3" to="3/0to3/1" departLane="best"/>
    <trip id="94" depart="18.80" from="3/1to2/1" to="1/0to2/0" departLane="best"/>
    <trip id="95" depart="19.00" from="3/3to2/3" to="0/2to0/3" departLane="best"/>
    <trip id="96" depart="19.20" from="0/2to0/1" to="2/1to3/1" departLane="best"/>
    <trip id="97" depart="19.40" from="0/3to1/3" to="1/2to1/3" departLane="best"/>
    <trip id="98" depart="19.60" from="2/1to2/0" to="2/1to2/0" departLane="best"/>
    <trip id="99" depart="19.80" from="2/1to1/1" to="3/2to3/1" departLane="best"/>
    <trip id="100" depart="20.00" from="3/3to3/2" to="1/3to1/2" departLane="best"/>
</trips>
