<?xml version="1.0" encoding="UTF-8"?>

<!-- generated on 04/10/18 09:15:31 by SUMO duarouter Version 0.24.0
<?xml version="1.0" encoding="UTF-8"?>

<configuration xmlns:xsi="http://www.w3.org/2001/XMLSchema-instance" xsi:noNamespaceSchemaLocation="http://sumo.dlr.de/xsd/duarouterConfiguration.xsd">

    <input>
        <net-file value="input_net.net.xml"/>
        <additional-files value="type.add.xml"/>
        <trip-files value="trips.trips.xml"/>
    </input>

    <output>
        <output-file value="routes.rou.xml"/>
    </output>

    <time>
        <begin value="0"/>
        <end value="800"/>
    </time>

</configuration>
-->

<routes xmlns:xsi="http://www.w3.org/2001/XMLSchema-instance" xsi:noNamespaceSchemaLocation="http://sumo.dlr.de/xsd/routes_file.xsd">
	<vehicle id="0" depart="0.00" departLane="best">
        <route edges="478/0 410/1 645 613/0 -56/1 378/1 -378/1"/>
    </vehicle>
    <vehicle id="1" depart="0.15" departLane="best">
        <route edges="21 95 437 110 356/0 -321/1 355/1 -388/3 -388/2 -388/1 -388/0 -35 386/0 386/1 423 576 578 389/0 389/1 581 417 457/0 457/1 459/0 459/1 459/2 477 405/0 405/1 405/2 368 479 471/0"/>
    </vehicle>
	<vehicle id="2" depart="0.30" departLane="best">
        <route edges="68/0 68/1 68/2 647 626 617 655 654 52 50 616 581 417 460 439 579 436 421 425/0 425/1 22/0 22/1 358/1 358/2"/>
    </vehicle>
    <vehicle id="3" depart="0.45" departLane="best">
        <route edges="545 549/0 549/1 566/1 566/2 566/3 649/0 649/1 649/2 649/3 649/4 649/5 649/6 7 557/3 6 596/0 559 564 663"/>
    </vehicle>
    <vehicle id="4" depart="0.60" departLane="best">
        <route edges="472/0 470 469/2 482 477 405/0 405/1 405/2 370 613/0 613/1 409/0 393 390"/>
    </vehicle>
    <vehicle id="5" depart="0.75" departLane="best">
        <route edges="451 450 449/0 449/1 456 389/0 389/1 581 408/0 57 526/5 13"/>
    </vehicle>
	<vehicle id="6" depart="0.90" departLane="best">
        <route edges="508/0 508/1 521 609 536 666/0 666/1 650 525/0 525/1 380 404/0 404/1 404/2 433/0 433/1 646 372 645 613/0 613/1 415"/>
    </vehicle>
    <vehicle id="7" depart="1.05" departLane="best">
        <route edges="-56/1 -378/0 97 455/2 460 456 389/0 51 46 675 668 618 659 658 627 630 669/0 669/1 669/2 651 503 569 350/3 350/0 501 493 494/0 494/1 506/0 506/1 -308"/>
    </vehicle>
    <vehicle id="8" depart="1.20" departLane="best">
        <route edges="523 609 543/0 543/1 551/2 551/3 508/1 521"/>
    </vehicle> 
	<vehicle id="9" depart="1.35" departLane="best">
        <route edges="65/0 65/1 537/1 537/2 669/0 669/1 669/2 651 568 67/0"/>
    </vehicle>
	<vehicle id="10" depart="1.50" departLane="best">
        <route edges="30/1 30/2 497 500 86 68/0 68/1 68/2 647 626 617 655 654 52 50 616 581 417 460 439 579 436 421 425/0 425/1 22/0 22/1 -22/1"/>
    </vehicle>
    <vehicle id="11" depart="1.65" departLane="best">
        <route edges="532/0 557/0 3 538/2 538/3 555/0 555/1 555/2 555/3 555/4 667 554/0 554/1 554/2 647 626 617 655 654 673 668 618"/>
    </vehicle>
    <vehicle id="12" depart="1.80" departLane="best">
        <route edges="462 461 405/2 478/0 478/1 478/2 407 36 642 637/0 637/1 431/1 376"/>
    </vehicle>
    <vehicle id="13" depart="1.95" departLane="best">
        <route edges="-550/1 550/1 543/1 543/2 543/3 8/2 -8/2"/>
    </vehicle>
    <vehicle id="14" depart="2.10" departLane="best">
        <route edges="651 503 571/0 571/1 571/2 629 505/0 505/1 570/0 570/1 438/0 438/1 384 429/0 429/1 437 440 601 573 39"/>
    </vehicle>
    <vehicle id="15" depart="2.25" departLane="best">
        <route edges="398/2 605/2 4 435 431/0 431/1 376 433/0 433/1 646 406/0 406/1 611 467/0 467/1 479 471/0 471/1 471/2 531 365"/>
    </vehicle>
    <vehicle id="16" depart="2.40" departLane="best">
        <route edges="415 455/0 455/1 455/2 460 456 389/0 51 46 675 668 618 659 656 617 655 654 53 485/4 545"/>
    </vehicle>
    <vehicle id="17" depart="2.55" departLane="best">
        <route edges="486 488/2 488/3 488/4 488/5 488/6 652 586/0 586/1 586/2 654 673 668 24/0 24/1 570/0 570/1 438/0 438/1 384 429/0 429/1 437 440 601 70/0"/>
    </vehicle>
    <vehicle id="18" depart="2.70" departLane="best">
        <route edges="605/1 605/2 4 435 431/0 431/1 376 433/0 433/1 646 372 645 613/0 613/1"/>
    </vehicle>
	<vehicle id="19" depart="2.85" departLane="best">
        <route edges="347 385/1 429/0 429/1 437 440 601 70/0 70/1 604 603 505/0 505/1 570/0 570/1 438/0 438/1 575/0 575/1 443 660 442/0 469/1 469/2 482 477 405/0 405/1"/>
    </vehicle>
    <vehicle id="20" depart="3.00" departLane="best">
        <route edges="348 601 70/0 70/1 604 603 505/0 505/1 570/0 570/1 438/0 438/1 383 576 577 579 436 421 425/0 425/1 22/0 354/2"/>
    </vehicle>
    <vehicle id="21" depart="3.15" departLane="best">
        <route edges="566/0 566/1 566/2 566/3 649/0 649/1 649/2 649/3 8/0 8/1 8/2 -8/2"/>
    </vehicle>
    <vehicle id="22" depart="3.30" departLane="best">
        <route edges="232 356/0 -321/1 355/1 -388/3 -388/2 -388/1 -388/0 -35 386/0 386/1 423 576 578 389/0 389/1 581 408/0 408/1 408/2 397/0 397/1 404/1 404/2 433/0 433/1 646 394 407 643 398/0 398/1 398/2 605/2 4 665/0 665/1"/>
    </vehicle>
    <vehicle id="23" depart="3.45" departLane="best">
        <route edges="-544/0 502/1 502/2 -549/2 566/1 566/2 566/3 649/0 649/1 649/2 649/3 649/4 649/5 649/6 7 557/3 6 596/0 559 564"/>
    </vehicle>
    <vehicle id="24" depart="3.60" departLane="best">
        <route edges="-35 386/0 386/1 423 576 578 389/0 389/1 581 417 457/0 457/1 459/0 459/1 452 468/1 449/0 449/1"/>
    </vehicle>
    <vehicle id="25" depart="3.75" departLane="best">
        <route edges="471/0 471/1 471/2 472/0 470 469/2 468/0 468/1 449/0 449/1 456 389/0 51 46 675 668 618 659 658 627 630 669/0 669/1 669/2 651 503 569 350/3 350/0 501 493 494/0 494/1 506/0 506/1 506/2 520"/>
    </vehicle>
    <vehicle id="26" depart="3.90" departLane="best">
        <route edges="549/2 554/2 648"/>
    </vehicle>
    <vehicle id="27" depart="4.05" departLane="best">
        <route edges="647 626 617 655"/>
    </vehicle>
    <vehicle id="28" depart="4.20" departLane="best">
        <route edges="526/4 526/5 13 14 16 545 549/0 549/1 566/1 566/2 44"/>
    </vehicle>
    <vehicle id="29" depart="4.35" departLane="best">
        <route edges="-299/1 299/1 70/1 604 603 505/0 23/0 23/1 659 656 617 566/0 566/1 566/2 566/3 650 525/0 525/1 380 404/0 404/1 404/2 433/0 433/1 646 406/0"/>
    </vehicle>
    <vehicle id="30" depart="4.50" departLane="best">
        <route edges="1/1 -9 488/4 488/5 488/6 653"/>
    </vehicle>
    <vehicle id="31" depart="4.65" departLane="best">
        <route edges="15/1 525/1 380 404/0 404/1"/>
    </vehicle>
	<vehicle id="32" depart="4.80" departLane="best">
        <route edges="557/2 557/3 6 596/0 596/1 560 562 538/0 488/0 488/1 488/2 488/3 488/4 488/5 488/6 653 592 554/0 -544/1 -544/0"/>
    </vehicle>
    <vehicle id="33" depart="4.95" departLane="best">
        <route edges="528 529 422 527 526/0 526/1 526/2 526/3 526/4 526/5 13 14 16 485/5 485/6 485/7 485/8 485/9 590 18 518 588"/>
    </vehicle>
    <vehicle id="34" depart="5.10" departLane="best">
        <route edges="485/4 545 549/0 586/2 654 673 668 24/0 24/1 570/0 570/1 438/0 438/1 384 429/0 429/1 437 440 601 70/0 70/1 604"/>
    </vehicle>
    <vehicle id="35" depart="5.25" departLane="best">
        <route edges="77/0 362 398/1 398/2 605/2 4 435 431/0 431/1 432/0 432/1 455/0 455/1 455/2 457/0 457/1 459/0"/>
    </vehicle>
    <vehicle id="36" depart="5.40" departLane="best">
        <route edges="87/2 -87/2 -8/2 -8/1 -8/0 649/4 649/5 486 488/2 488/3 488/4 488/5"/>
    </vehicle>
    <vehicle id="37" depart="5.55" departLane="best">
        <route edges="395 407 643 398/0 398/1 398/2 605/2 595 556 553/0 599 555/0 -43 649/5 649/6 649/7 558/1 558/2"/>
    </vehicle>
    <vehicle id="38" depart="5.70" departLane="best">
        <route edges="66 603 505/0 23/0 23/1 659 656 617 566/0 566/1 566/2 566/3 650 525/0 525/1 380 404/0 404/1 404/2 433/0 433/1 646 394 407 643 398/0 398/1 398/2 605/2 4 665/0"/>
    </vehicle>
    <vehicle id="39" depart="5.85" departLane="best">
        <route edges="70/1 604 603 505/0 505/1 570/0 570/1 438/0 438/1 384 429/0 429/1 437 440 601 70/0 -299/1 -332/1"/>
    </vehicle>
	<vehicle id="40" depart="6.00" departLane="best">
        <route edges="-634/2 634/2 662/1 662/2 663 664/0 361 413/1 463/0 463/1 463/2 611 410/0 410/1 645 613/0 613/1 409/0 393 390 391 526/1 526/2 526/3 526/4 526/5 526/6 526/7 526/8 438/1 384 429/0 429/1 437 110 356/0 -321/1 355/1 -388/3 -388/2 -388/1 -388/0 -35 386/0"/>
    </vehicle>
    <vehicle id="41" depart="6.15" departLane="best">
        <route edges="50 616 581 408/0 57 526/5 13"/>
    </vehicle>
    <vehicle id="42" depart="6.30" departLane="best">
        <route edges="418/0 418/1 425/1 22/0 22/1 358/1 358/2 621 444 661/0 661/1 661/2 429/0 429/1 437 440 601 70/0 70/1 604 603 505/0 23/0 23/1 659 656 617 566/0 566/1 566/2 566/3 649/0 649/1 649/2 649/3 649/4 649/5 486 488/2 488/3 9 1/0"/>
    </vehicle>
    <vehicle id="43" depart="6.45" departLane="best">
        <route edges="485/6 485/7 485/8 485/9 590 591/0 528 529 422 527 402 403/0 403/1 433/0 433/1 646 406/0 406/1 611 467/0 467/1 479 471/0 471/1 471/2 472/0 472/1"/>
    </vehicle>
    <vehicle id="44" depart="6.60" departLane="best">
        <route edges="77/0 362 398/1 398/2 605/2 595 556 553/0 553/1 542/0 542/1 542/2 533 30/2 508/0 508/1 610 624 523"/>
    </vehicle>
    <vehicle id="45" depart="6.75" departLane="best">
        <route edges="350/2 350/3 350/0 501 493 494/0 494/1 495 60 84 496/0 496/1 496/2"/>
    </vehicle>
    <vehicle id="46" depart="6.90" departLane="best">
        <route edges="105/1 628/1"/>
    </vehicle>
    <vehicle id="47" depart="7.05" departLane="best">
        <route edges="644 640 642 638 646 394 407 643 398/0 398/1 398/2 605/2 4 665/0 665/1 561"/>
    </vehicle>
    <vehicle id="48" depart="7.20" departLane="best">
        <route edges="21 95 437 110 356/0 -321/1 355/1 -388/3 -388/2 -388/1 -388/0 -35 386/0 386/1 423 576 578 389/0 389/1 581 408/0 408/1 408/2 397/0 397/1 404/1 404/2 433/0 433/1 646 394 407 643 398/0 398/1 398/2"/>
    </vehicle>
    <vehicle id="49" depart="7.35" departLane="best">
        <route edges="-8/2 -8/1 555/2 555/3 555/4 666/0 666/1 650 525/0 525/1 380 404/0 404/1 432/1 455/0 374 97"/>
    </vehicle>
    <vehicle id="50" depart="7.50" departLane="best">
        <route edges="384 429/0 429/1 437 110 356/0 -321/1 355/1 -388/3 -388/2 -388/1 -388/0 -35 386/0 386/1 423 576 578 389/0 389/1 581 408/0 408/1 408/2 397/0 397/1 404/1 404/2 433/0 433/1 646 394 407 643 398/0 398/1 398/2 605/2 4"/>
    </vehicle>
	<vehicle id="51" depart="7.65" departLane="best">
        <route edges="438/1 383 576 578 389/0 51 46 675 668 618 659 656 617 566/0 566/1 566/2 566/3 649/0 649/1 649/2 649/3 649/4 649/5 565 538/3 598 542/0 541"/>
    </vehicle>
    <vehicle id="52" depart="7.80" departLane="best">
        <route edges="397/4 397/5 420 431/0 431/1 432/0 432/1 455/0 455/1 455/2 460 439 579 382 443 660 473 444 661/0 661/1 661/2 429/0 429/1 437 440 601 70/0 -299/1 -332/1 -332/0"/>
    </vehicle>
    <vehicle id="53" depart="7.95" departLane="best">
        <route edges="649/1 649/2 551/0 555/3 555/4 667 554/0 554/1 554/2 648 628/0 -105/1 -105/0 105/0"/>
    </vehicle>
    <vehicle id="54" depart="8.10" departLane="best">
        <route edges="-378/0 97 455/2 460 456 389/0 389/1 581 408/0 408/1 408/2 392 390 401 403/0"/>
    </vehicle>
    <vehicle id="55" depart="8.25" departLane="best">
        <route edges="522 523 609 536 667 554/0 544/2 566/2 514"/>
    </vehicle>
    <vehicle id="56" depart="8.40" departLane="best">
        <route edges="-87/2 87/2 548 542/2 534 532/0 557/0 3"/>
    </vehicle>
    <vehicle id="57" depart="8.55" departLane="best">
        <route edges="466/0 466/1 76 40 471/0 471/1 471/2 472/0 470 469/2 482 477 464 75 77/0 362 398/1 398/2 605/2 4 665/0 665/1 561 560 562 538/0 488/0"/>
    </vehicle>
	<vehicle id="58" depart="8.70" departLane="best">
        <route edges="442/0 469/1 469/2 468/0 468/1 449/0 449/1 439 579 382 443 660 473 444 661/0"/>
    </vehicle>
    <vehicle id="59" depart="8.85" departLane="best">
        <route edges="316/1 232 356/0 -321/1 355/1 -388/3 -388/2 -388/1 -388/0 -35 386/0 386/1 423 576 578 389/0 389/1 581"/>
    </vehicle>
	<vehicle id="60" depart="9.00" departLane="best">
        <route edges="649/6 7 557/3 6 596/0 596/1 560 562 538/0 488/0 488/1 488/2 488/3 488/4 488/5 488/6 652 586/0 586/1 586/2 654 673 668 618 659 658 627 630 669/0 669/1 669/2 651 568"/>
    </vehicle>
    <vehicle id="61" depart="9.15" departLane="best">
        <route edges="523 609 536 666/0"/>
    </vehicle>
    <vehicle id="62" depart="9.30" departLane="best">
        <route edges="438/0 438/1 383 576 578 389/0 51 46 675 668 618 659 658 627 628/0 628/1"/>
    </vehicle>
    <vehicle id="63" depart="9.45" departLane="best">
        <route edges="433/1 646 372 645 613/0 613/1 409/0 409/1 379 19 653 592 301 672 519 594/0 594/1 594/2 498/0 498/1 353/0 353/1"/>
    </vehicle>
    <vehicle id="64" depart="9.60" departLane="best">
        <route edges="11 23/1 659 656 617 566/0 566/1 566/2 566/3 650 525/0 525/1 380 404/0 404/1 404/2 433/0 433/1 646 394"/>
    </vehicle>
	<vehicle id="65" depart="9.75" departLane="best">
        <route edges="92 649/1 649/2 649/3 649/4 649/5 486 488/2 488/3 488/4 488/5 488/6 652 586/0 586/1 586/2 654 673 668 24/0 24/1 570/0 570/1 438/0 438/1 384 429/0 429/1 437 440 601 70/0 -299/1 -332/1 -332/0 316/1 348"/>
    </vehicle>
    <vehicle id="66" depart="9.90" departLane="best">
        <route edges="528 529 422 527 526/0 526/1 375 408/2 397/0 409/1 379 19 653 592 301 671 543/0 543/1 551/2 551/3 508/1 610"/>
    </vehicle>
    <vehicle id="67" depart="10.05" departLane="best">
        <route edges="634/2 662/1 662/2 663 664/0 361 413/1 463/0 463/1 463/2 611 410/0 410/1 645 613/0 613/1 409/0 393 390 391 526/1 526/2 526/3 526/4 526/5 526/6 526/7 526/8 438/1 384 429/0 429/1 437 440 601"/>
    </vehicle>
    <vehicle id="68" depart="10.20" departLane="best">
        <route edges="-634/2 634/2 662/1 662/2 663 664/0 361 413/1 463/0 463/1 463/2 611 410/0 410/1 645 613/0 613/1 415 455/0"/>
    </vehicle>
    <vehicle id="69" depart="10.35" departLane="best">
        <route edges="454 457/1 459/0 56/0 56/1 613/1 409/0 409/1 379 19 652 586/0 12 552 590 591/0 591/1 591/2 488/5 488/6"/>
    </vehicle>
    <vehicle id="70" depart="10.50" departLane="best">
        <route edges="485/4 545 549/0 586/2 654 52 50 616 581 417 460 439 579 382"/>
    </vehicle>
    <vehicle id="71" depart="10.65" departLane="best">
        <route edges="355/0 355/1 -388/3 -388/2 -388/1 -388/0 -35 386/0 347 385/1 429/0 429/1 437 440 601 573 39"/>
    </vehicle>
    <vehicle id="72" depart="10.80" departLane="best">
        <route edges="468/1 449/0 449/1 456 389/0 51 46 675 668 618 659 658 627 630 669/0 669/1 669/2 651 503 571/0 571/1 537/0"/>
    </vehicle> 
	<vehicle id="73" depart="10.95" departLane="best">
        <route edges="522 523 609 543/0 543/1 543/2 543/3 543/4 542/0 542/1 542/2 534 532/0 557/0 557/1"/>
    </vehicle>
    <vehicle id="74" depart="11.10" departLane="best">
        <route edges="23/1 659 656 617 566/0 566/1 566/2 566/3 650 525/0 525/1 380 404/0 404/1 404/2 433/0"/>
    </vehicle>
    <vehicle id="75" depart="11.25" departLane="best">
        <route edges="575/1 443 660 442/0 469/1 469/2 468/0 468/1 449/0 449/1 456 389/0 51 46"/>
    </vehicle>
    <vehicle id="76" depart="11.40" departLane="best">
        <route edges="63 69/1 66 603 505/0 23/0 23/1 659 656 617 655 654 673 668 24/0 24/1"/>
    </vehicle>
    <vehicle id="77" depart="11.55" departLane="best">
        <route edges="87/0 -87/0 -551/2 -551/1 555/3 555/4 666/0 666/1 650 525/0 525/1 380 404/0 404/1 432/1 455/0 455/1 455/2 460 439 579 436 421 425/0 425/1 22/0 22/1 -22/1"/>
    </vehicle>
    <vehicle id="78" depart="11.70" departLane="best">
        <route edges="386/1 423 576 578 389/0 51 46 675 668 618 659 658 627 628/0 -105/1 -105/0 105/0"/>
    </vehicle>
    <vehicle id="79" depart="11.85" departLane="best">
        <route edges="-637/0 637/0 637/1 431/1 377 397/3 397/4 397/5 434 662/0 -634/2 -634/1 634/1"/>
    </vehicle>
    <vehicle id="80" depart="12.00" departLane="best">
        <route edges="581 408/0 408/1 408/2 397/0 397/1 404/1 404/2 433/0 433/1 646 394 407 643 398/0 398/1 398/2 605/2 4"/>
    </vehicle>
    <vehicle id="81" depart="12.15" departLane="best">
        <route edges="488/3 488/4 488/5 488/6 652 586/0 586/1 586/2 654 673 668 618 659 658 627 630 669/0 669/1 669/2"/>
    </vehicle>
    <vehicle id="82" depart="12.30" departLane="best">
        <route edges="-388/2 -388/1 -388/0 -35 386/0 386/1 423 576 578 389/0 389/1 581 408/0 408/1 408/2 416 455/0 374"/>
    </vehicle>
    <vehicle id="83" depart="12.45" departLane="best">
        <route edges="514 586/0 586/1 549/1 566/1 566/2 566/3 649/0 649/1 649/2 551/0 551/1 543/2 -341"/>
    </vehicle>
    <vehicle id="84" depart="12.60" departLane="best">
        <route edges="575/0 575/1 443 660 442/0 469/1 469/2 468/0 468/1 449/0 449/1 456 389/0 51 46 675 668 618 659 656 617 566/0 -549/1 -549/0 546 485/6 485/7 485/8 485/9 590 591/0 591/1 591/2 488/5 488/6"/>
    </vehicle>
    <vehicle id="85" depart="12.75" departLane="best">
        <route edges="551/0 -551/0 649/3 649/4 649/5 649/6 7 557/3 6 596/0 596/1 560 562 538/0 488/0 488/1"/>
    </vehicle>
	<vehicle id="86" depart="12.90" departLane="best">
        <route edges="479 471/0 446/0 446/1"/>
    </vehicle>
    <vehicle id="87" depart="13.05" departLane="best">
        <route edges="554/1 554/2 647 626 617 655 654 52 50 616 581 417 460 456 389/0 389/1"/>
    </vehicle>
    <vehicle id="88" depart="13.20" departLane="best">
        <route edges="70/0 70/1 604 603 505/0 23/0 23/1 659 656 617 566/0 566/1 566/2 566/3 650 525/0 525/1 380 404/0 404/1 404/2 433/0 433/1 646 394 407 643 396"/>
    </vehicle>
	<vehicle id="89" depart="13.35" departLane="best">
        <route edges="436 421 425/0 425/1 22/0 22/1 358/1 358/2 621 444 661/0 661/1 661/2 429/0 429/1 437 440 601 70/0 70/1 604 603 505/0 23/0 23/1 659 658 627 630 669/0 669/1 669/2 651 503 571/0 297 65/0 -65/0"/>
    </vehicle>
    <vehicle id="90" depart="13.50" departLane="best">
        <route edges="96 397/5 420 431/0 431/1 432/0 432/1 455/0 455/1 455/2 457/0 457/1"/>
    </vehicle>
    <vehicle id="91" depart="13.65" departLane="best">
        <route edges="501 493 494/0 494/1 506/0 506/1 506/2 607 522 523 609 536 666/0 666/1 650 525/0 525/1 380 404/0 404/1 404/2 433/0 433/1 646 406/0 406/1 611 467/0 467/1 479 471/0 471/1"/>
    </vehicle>
    <vehicle id="92" depart="13.80" departLane="best">
        <route edges="388/0 -388/0 -35 386/0 386/1 423 576 578 389/0 389/1 581 417 457/0 457/1 459/0 459/1 459/2 477 405/0 405/1 405/2 368 479 471/0"/>
    </vehicle>
    <vehicle id="93" depart="13.95" departLane="best">
        <route edges="590"/>
    </vehicle>
    <vehicle id="94" depart="14.10" departLane="best">
        <route edges="670/1 502/2 -549/2 566/1 566/2 566/3 650 525/0 525/1 380 404/0 404/1 404/2 433/0 433/1 646 406/0 406/1 611 467/0 467/1 479"/>
    </vehicle>
    <vehicle id="95" depart="14.25" departLane="best">
        <route edges="494/0 494/1 506/0 506/1 506/2 607 522 523 609 536 666/0 666/1 650 525/0 525/1 380 404/0 404/1 404/2 433/0 433/1 646 406/0 406/1 611 467/0 467/1 479 471/0 446/0"/>
    </vehicle>
    <vehicle id="96" depart="14.40" departLane="best">
        <route edges="525/0 525/1 380 404/0 404/1 432/1 455/0 455/1 455/2 460 456 389/0 389/1 581 408/0 408/1 408/2 397/0 409/1 379 19 653 592 301 672"/>
    </vehicle>
    <vehicle id="97" depart="14.55" departLane="best">
        <route edges="72 493 494/0 494/1 506/0 506/1 506/2 507 594/1 594/2 68/0 68/1 68/2 647 626 617 655 654 52 50 616 581 417 457/0 457/1 459/0 459/1 452 468/1 449/0 449/1"/>
    </vehicle>
    <vehicle id="98" depart="14.70" departLane="best">
        <route edges="351/0 62 72 493 494/0 494/1 506/0 506/1 506/2 607 522 523 609 536 667 554/0 554/1"/>
    </vehicle>
    <vehicle id="99" depart="14.85" departLane="best">
        <route edges="661/2 429/0 429/1 437 440 601 70/0 70/1 604 603 505/0 23/0 23/1 659 656 617 566/0 566/1 566/2 566/3 649/0"/>
    </vehicle>
    <vehicle id="100" depart="15.00" departLane="best">
        <route edges="-544/0 502/1 502/2 -549/2 566/1 566/2 514 586/0"/>
    </vehicle>
	<vehicle id="101" depart="15.15" departLane="best">
        <route edges="465 414 411 463/0 463/1 463/2 611 410/0 410/1 645 613/0 613/1 415 455/0 455/1 455/2 460 456 389/0 389/1 581 408/0 57"/>
    </vehicle>
    <vehicle id="102" depart="15.30" departLane="best">
        <route edges="364 467/1 479 471/0 471/1 471/2 472/0 470 469/2 482 477 464 75 77/0 362 398/1 360 413/1 463/0 463/1 395"/>
    </vehicle>
    <vehicle id="103" depart="15.45" departLane="best">
        <route edges="554/2 647 626 617 655 654 673 668 24/0 24/1 570/0 570/1 438/0 438/1 384 429/0 429/1 437 110 356/0 -321/1 355/1 -388/3 -388/2 -388/1 388/1"/>
    </vehicle>
    <vehicle id="104" depart="15.60" departLane="best">
        <route edges="-341 -87/0 551/3 508/1 610 624 606"/>
    </vehicle>
    <vehicle id="105" depart="15.75" departLane="best">
        <route edges="560 597 596/0 559 564 663 664/0"/>
    </vehicle>
    <vehicle id="106" depart="15.90" departLane="best">
        <route edges="554/0 544/2 566/2 566/3 650 516/0 516/1 517 528 529 422 527 402 403/0 373"/>
    </vehicle>
    <vehicle id="107" depart="16.05" departLane="best">
        <route edges="628/0 -105/1 537/2 670/0 68/2 647 626 617 655 654 52 50 616 581 417 460 439 579 436 421"/>
    </vehicle>
    <vehicle id="108" depart="16.20" departLane="best">
        <route edges="36 642 638 646 372 645 613/0 613/1 409/0 409/1 379 19 653 592 301 671 536 666/0 666/1 650 516/0 516/1 513"/>
    </vehicle>
	<vehicle id="109" depart="16.35" departLane="best">
        <route edges="433/0 433/1 646 372 645 613/0 613/1 409/0 409/1 379 19 652 586/0 586/1 586/2 654 673 668 618 659 658 627 628/0 -105/1"/>
    </vehicle>
    <vehicle id="110" depart="16.50" departLane="best">
        <route edges="505/1 570/0 570/1 438/0 438/1 383 576 578 389/0 389/1 581 408/0 408/1 408/2 416 455/0 374 378/0"/>
    </vehicle>
    <vehicle id="111" depart="16.65" departLane="best">
        <route edges="658 627 630 669/0 669/1 669/2 651 568 67/0 63 69/1 66 603"/>
    </vehicle>
    <vehicle id="112" depart="16.80" departLane="best">
        <route edges="504 503 571/0 571/1 571/2 629 505/0 505/1 570/0 570/1 438/0 438/1 384 429/0 429/1 437 110"/>
    </vehicle>
    <vehicle id="113" depart="16.95" departLane="best">
        <route edges="52 50 616 581 408/0 408/1"/>
    </vehicle>
    <vehicle id="114" depart="17.10" departLane="best">
        <route edges="613/0 613/1 409/0 393 390 391 526/1 526/2 526/3 526/4 526/5 526/6 526/7 526/8 438/1 384 429/0 429/1 437 440 601 70/0 70/1 602"/>
    </vehicle>
	<vehicle id="115" depart="17.25" departLane="best">
        <route edges="30/0 30/1 30/2 497 500 86 68/0 68/1 68/2 647 626 617 655 654 52 50 616 581 417 457/0 457/1 459/0 459/1 459/2 477 464 75"/>
    </vehicle>
    <vehicle id="116" depart="17.40" departLane="best">
        <route edges="620 366 359 369 468/0 468/1"/>
    </vehicle>
    <vehicle id="117" depart="17.55" departLane="best">
        <route edges="577 579 382 443 660 442/0 469/1 469/2 468/0 468/1 449/0 449/1 456 389/0 51 46 675 668 618 659 658 627 630 669/0 669/1 669/2 651 568 67/0 63 69/1"/>
    </vehicle>
    <vehicle id="118" depart="17.70" departLane="best">
        <route edges="360 413/1 463/0 463/1 463/2 611 410/0 410/1 645 613/0 613/1 415 455/0 455/1 455/2 460 439 579 436 421 425/0 425/1 22/0 22/1 -22/1"/>
    </vehicle>
    <vehicle id="119" depart="17.85" departLane="best">
        <route edges="-297 571/1 571/2 629 505/0 23/0 23/1 659 656 617 566/0 566/1 566/2 566/3 650 525/0 525/1 380 404/0 404/1 404/2 433/0 433/1 646 406/0 406/1 611 467/0 467/1 479 471/0 446/0 446/1"/>
    </vehicle>
    <vehicle id="120" depart="18.00" departLane="best">
        <route edges="506/1 506/2 507 594/1 594/2 68/0 68/1 68/2 647 626 617 655 654 52 50 616 581 417 457/0 457/1 459/0 459/1 452 468/1 449/0 454"/>
    </vehicle>
    <vehicle id="121" depart="18.15" departLane="best">
        <route edges="478/2 407 36 642 638 646 372 645 613/0 613/1 409/0 397/1"/>
    </vehicle>
	<vehicle id="122" depart="18.30" departLane="best">
        <route edges="22/1 358/1 358/2 621 444 661/0 661/1 661/2 429/0 429/1 437 110 356/0 -321/1 355/1 -388/3 388/3"/>
    </vehicle>
    <vehicle id="123" depart="18.45" departLane="best">
        <route edges="637/1 431/1 376 433/0 433/1 646 394 407 643 398/0 398/1 398/2 605/2 595"/>
    </vehicle>
    <vehicle id="124" depart="18.60" departLane="best">
        <route edges="385/0 385/1 429/0 429/1 437 440 601 70/0 70/1 604 603 505/0 505/1 570/0 570/1 438/0 438/1 575/0 575/1 443 660 442/0 442/1 371 481 367"/>
    </vehicle>
    <vehicle id="125" depart="18.75" departLane="best">
        <route edges="647 626 617 566/0 566/1 566/2 44 592 301 671 536"/>
    </vehicle>
    <vehicle id="126" depart="18.90" departLane="best">
        <route edges="56/1 613/1 381 433/0 433/1 646 394 407 643 398/0"/>
    </vehicle>
    <vehicle id="127" depart="19.05" departLane="best">
        <route edges="553/0 599 555/0 555/1 555/2 555/3 555/4 666/0 666/1 650 525/0 525/1 380 404/0 404/1 404/2 433/0 433/1 646 394 407 643 398/0 398/1"/>
    </vehicle>
    <vehicle id="128" depart="19.20" departLane="best">
        <route edges="7 557/3 6 596/0 596/1 560 562 538/0 488/0 488/1 488/2 488/3 488/4 488/5 488/6 652 586/0 586/1 549/1 566/1 566/2 566/3"/>
    </vehicle>
    <vehicle id="129" depart="19.35" departLane="best">
        <route edges="667 301 671 543/0 543/1 543/2 543/3"/>
    </vehicle>
    <vehicle id="130" depart="19.50" departLane="best">
        <route edges="532/0 557/0 3 538/2 538/3 555/0 555/1 555/2 555/3 555/4 666/0 666/1 650 525/0 525/1 380 404/0 397/2"/>
    </vehicle>
    <vehicle id="131" depart="19.65" departLane="best">
        <route edges="404/0 404/1 432/1 455/0 455/1 455/2 460 456 389/0 51 46 675 668 618 659 656 617 566/0 -549/1 -549/0 546 485/6 485/7 485/8 485/9 590 591/0 591/1"/>
    </vehicle>
    <vehicle id="132" depart="19.80" departLane="best">
        <route edges="469/2 482 477 405/0 405/1 405/2 478/0 478/1 406/1 611"/>
    </vehicle>
    <vehicle id="133" depart="19.95" departLane="best">
        <route edges="555/3 -550/0"/>
    </vehicle>
    <vehicle id="134" depart="20.10" departLane="best">
        <route edges="-637/0 637/0 637/1 431/1 432/0 432/1 455/0 455/1 455/2 460 456 389/0 51 46 675 668 618 659 656 617 655 654"/>
    </vehicle>
    <vehicle id="135" depart="20.25" departLane="best">
        <route edges="664/0 361 413/1 463/0 463/1 395 407 36 642 638 646 406/0"/>
    </vehicle>
    <vehicle id="136" depart="20.40" departLane="best">
        <route edges="30/0 535/0 535/1 532/0 532/1 5 29 664/0 361"/>
    </vehicle>
    <vehicle id="137" depart="20.55" departLane="best">
        <route edges="413/1 463/0 463/1 463/2 611 410/0 410/1 645 613/0 613/1 409/0 393 390 391 526/1 526/2 526/3 526/4 526/5 526/6 526/7 526/8 438/1 384 429/0 429/1 437 110 356/0 -321/1 355/1 -388/3 -388/2 -388/1 -388/0 -35 35"/>
    </vehicle>
    <vehicle id="138" depart="20.70" departLane="best">
        <route edges="-550/0 649/2 551/0 555/3 555/4 667 301 672 519 594/0"/>
    </vehicle>
    <vehicle id="139" depart="20.85" departLane="best">
        <route edges="634/2 662/1 662/2 663 664/0 361 413/1 463/0 463/1 463/2 611 410/0 410/1 645 613/0 613/1 409/0 409/1 379 19 653 592 301 672 593 584"/>
    </vehicle>
    <vehicle id="140" depart="21.00" departLane="best">
        <route edges="500 86 68/0 68/1 68/2 647 626 617 566/0 566/1 566/2 566/3 650 525/0 525/1 380 404/0 404/1 404/2 433/0 433/1 646 406/0 406/1 611 467/0 467/1 479 471/0 471/1 471/2 531"/>
    </vehicle>
    <vehicle id="141" depart="21.15" departLane="best">
        <route edges="401 403/0 373 397/3 -98 527 526/0 526/1 526/2 526/3 526/4 526/5 13 14 16 545 549/0 586/2 654 673 668 618 659 658 627 630 670/0"/>
    </vehicle>
    <vehicle id="142" depart="21.30" departLane="best">
        <route edges="96 397/5 420 431/0 431/1 432/0 432/1 455/0 455/1 455/2 460 439 579 436 421 425/0 425/1 22/0 22/1 358/1"/>
    </vehicle>
    <vehicle id="143" depart="21.45" departLane="best">
        <route edges="669/0 669/1 42 68/1 68/2 647 626 617 566/0 566/1 566/2 566/3 650 525/0 525/1 380 404/0 404/1 404/2 433/0 433/1 646 406/0 406/1 611 467/0 467/1 479 471/0 471/1 471/2 531 365"/>
    </vehicle>
    <vehicle id="144" depart="21.60" departLane="best">
        <route edges="-544/1 544/1 554/1 554/2 648 630 669/0 669/1 669/2 651 503 571/0 297 65/0"/>
    </vehicle>
    <vehicle id="145" depart="21.75" departLane="best">
        <route edges="467/1 479 471/0 471/1 471/2 472/0 470 469/2 482 477 464 75 77/0 362 398/1 398/2 605/2 4 665/0 665/1 561 560 562 538/0 488/0"/>
    </vehicle>
    <vehicle id="146" depart="21.90" departLane="best">
        <route edges="444 661/0 661/1 474 575/1 443 660 442/0 469/1 469/2 482 477 405/0 405/1 405/2 370 613/0 613/1 415 455/0"/>
    </vehicle>
    <vehicle id="147" depart="22.05" departLane="best">
        <route edges="382 443 660 442/0 469/1 469/2 482 477 464 75 77/0 362 398/1 398/2 605/2 595"/>
    </vehicle>
    <vehicle id="148" depart="22.20" departLane="best">
        <route edges="449/1 456 389/0 389/1 581 408/0 408/1 408/2 397/0 409/1 379 19 653 592 301 672 519 594/0 594/1 594/2 498/0 498/1 353/0 657"/>
    </vehicle>
    <vehicle id="149" depart="22.35" departLane="best">
        <route edges="316/1 348 601 70/0 70/1 604 603 505/0 23/0 23/1 659 656 617 566/0 566/1 566/2 44 592 301 671"/>
    </vehicle>