<?xml version="1.0" encoding="UTF-8"?>

<!-- generated on 03/13/16 10:37:36 by SUMO duarouter Version 0.24.0
<?xml version="1.0" encoding="UTF-8"?>

<configuration xmlns:xsi="http://www.w3.org/2001/XMLSchema-instance" xsi:noNamespaceSchemaLocation="http://sumo.dlr.de/xsd/duarouterConfiguration.xsd">

    <input>
        <net-file value="input_net.net.xml"/>
        <trip-files value="trips.trips.xml"/>
    </input>

    <output>
        <output-file value="routes.rou.xml"/>
    </output>

</configuration>
-->

<routes xmlns:xsi="http://www.w3.org/2001/XMLSchema-instance" xsi:noNamespaceSchemaLocation="http://sumo.dlr.de/xsd/routes_file.xsd">
	<vType accel="0.1" decel="0.1" id="CarA" length="3.0" maxSpeed="0.11" color="1,1,1"/>
    <vehicle id="0" depart="0.00" type="CarA">
        <route edges="6/2to6/3 6/3to5/3 5/3to4/3 4/3to3/3 3/3to2/3 2/3to1/3 1/3to1/4 1/4to1/5 1/5to1/6 1/6to1/7 1/7to2/7"/>
    </vehicle>
    <vehicle id="1" depart="0.02" type="CarA">
        <route edges="5/6to4/6 4/6to5/6 5/6to6/6 6/6to6/5"/>
    </vehicle>
    <vehicle id="2" depart="0.04" type="CarA">
        <route edges="5/7to4/7 4/7to5/7 5/7to6/7 6/7to5/7"/>
    </vehicle>
    <vehicle id="3" depart="0.06" type="CarA">
        <route edges="7/3to7/2 7/2to6/2 6/2to5/2 5/2to4/2 4/2to3/2 3/2to2/2 2/2to2/1 2/1to1/1"/>
    </vehicle>
    <vehicle id="4" depart="0.08" type="CarA">
        <route edges="5/4to6/4 6/4to5/4 5/4to4/4 4/4to3/4 3/4to2/4 2/4to1/4 1/4to0/4 0/4to0/5 0/5to0/6 0/6to0/7 0/7to0/6"/>
    </vehicle>
    <vehicle id="5" depart="0.10" type="CarA">
        <route edges="4/2to4/1 4/1to4/2 4/2to4/3 4/3to5/3 5/3to6/3 6/3to7/3 7/3to6/3"/>
    </vehicle>
    <vehicle id="6" depart="0.12" type="CarA">
        <route edges="4/2to4/1 4/1to4/2 4/2to4/3 4/3to4/4 4/4to4/5 4/5to5/5 5/5to6/5 6/5to6/6"/>
    </vehicle>
    <vehicle id="7" depart="0.14" type="CarA">
        <route edges="2/7to1/7 1/7to1/6 1/6to1/5 1/5to2/5 2/5to3/5 3/5to4/5"/>
    </vehicle>
    <vehicle id="8" depart="0.16" type="CarA">
        <route edges="2/5to3/5 3/5to3/4 3/4to3/3 3/3to3/2 3/2to4/2 4/2to5/2 5/2to6/2"/>
    </vehicle>
    <vehicle id="9" depart="0.18" type="CarA">
        <route edges="5/6to5/5 5/5to4/5 4/5to4/4 4/4to4/3 4/3to3/3"/>
    </vehicle>
    <vehicle id="10" depart="0.20">
        <route edges="6/2to6/3 6/3to6/4 6/4to6/5 6/5to6/6 6/6to6/7 6/7to7/7"/>
    </vehicle>
    <vehicle id="11" depart="0.22">
        <route edges="5/4to6/4 6/4to5/4 5/4to4/4 4/4to3/4 3/4to2/4 2/4to1/4 1/4to0/4 0/4to0/5 0/5to0/6 0/6to0/7 0/7to0/6"/>
    </vehicle>
    <vehicle id="12" depart="0.24">
        <route edges="1/3to1/4 1/4to1/3 1/3to1/2 1/2to1/1 1/1to1/0 1/0to2/0 2/0to1/0"/>
    </vehicle>
    <vehicle id="13" depart="0.26">
        <route edges="0/3to0/4 0/4to0/3 0/3to0/2 0/2to1/2 1/2to2/2 2/2to3/2 3/2to3/3"/>
    </vehicle>
    <vehicle id="14" depart="0.28">
        <route edges="3/0to4/0 4/0to3/0 3/0to2/0 2/0to1/0 1/0to1/1 1/1to1/2 1/2to1/3"/>
    </vehicle>
    <vehicle id="15" depart="0.30">
        <route edges="5/4to6/4 6/4to5/4 5/4to4/4 4/4to3/4 3/4to2/4 2/4to1/4 1/4to0/4 0/4to0/5 0/5to0/6 0/6to0/7 0/7to0/6"/>
    </vehicle>
    <vehicle id="16" depart="0.32">
        <route edges="4/1to3/1 3/1to3/2 3/2to3/3 3/3to3/4 3/4to3/5 3/5to4/5 4/5to5/5 5/5to6/5"/>
    </vehicle>
    <vehicle id="17" depart="0.34">
        <route edges="6/2to6/3 6/3to5/3 5/3to4/3 4/3to3/3 3/3to2/3 2/3to1/3 1/3to1/4 1/4to1/5 1/5to1/6 1/6to1/7 1/7to2/7"/>
    </vehicle>
    <vehicle id="18" depart="0.36">
        <route edges="4/4to5/4 5/4to5/5 5/5to5/6 5/6to5/7 5/7to6/7 6/7to7/7 7/7to7/6"/>
    </vehicle>
    <vehicle id="19" depart="0.38">
        <route edges="5/4to5/5 5/5to4/5 4/5to3/5 3/5to2/5 2/5to2/4 2/4to2/3 2/3to2/2 2/2to2/1 2/1to2/2"/>
    </vehicle>
    <vehicle id="20" depart="0.40">
        <route edges="5/1to5/0 5/0to4/0 4/0to4/1 4/1to4/2 4/2to5/2"/>
    </vehicle>
    <vehicle id="21" depart="0.42">
        <route edges="6/2to6/1 6/1to5/1 5/1to4/1 4/1to4/2 4/2to4/3 4/3to4/4 4/4to4/5 4/5to4/6 4/6to4/7 4/7to3/7"/>
    </vehicle>
    <vehicle id="22" depart="0.44">
        <route edges="4/3to4/4 4/4to4/5 4/5to4/6 4/6to5/6 5/6to6/6 6/6to7/6 7/6to7/7"/>
    </vehicle>
    <vehicle id="23" depart="0.46">
        <route edges="3/6to2/6 2/6to2/5 2/5to2/4 2/4to2/3 2/3to2/2 2/2to2/1 2/1to3/1 3/1to4/1 4/1to5/1 5/1to5/0"/>
    </vehicle>
    <vehicle id="24" depart="0.48">
        <route edges="2/7to1/7 1/7to1/6 1/6to1/5 1/5to2/5 2/5to3/5 3/5to4/5"/>
    </vehicle>
    <vehicle id="25" depart="0.50">
        <route edges="0/5to0/4 0/4to0/3 0/3to1/3 1/3to2/3 2/3to3/3 3/3to4/3 4/3to5/3 5/3to6/3 6/3to6/4"/>
    </vehicle>
    <vehicle id="26" depart="0.52">
        <route edges="4/1to3/1 3/1to2/1 2/1to1/1 1/1to0/1 0/1to0/2 0/2to0/3 0/3to0/4 0/4to0/5 0/5to0/6 0/6to0/7 0/7to1/7"/>
    </vehicle>
    <vehicle id="27" depart="0.54">
        <route edges="6/6to6/7 6/7to5/7 5/7to4/7 4/7to3/7 3/7to3/6 3/6to3/5 3/5to3/4 3/4to3/3 3/3to4/3"/>
    </vehicle>
    <vehicle id="28" depart="0.56">
        <route edges="5/4to6/4 6/4to5/4 5/4to5/5 5/5to5/4"/>
    </vehicle>
    <vehicle id="29" depart="0.58">
        <route edges="3/2to4/2 4/2to4/3 4/3to4/4 4/4to4/5 4/5to4/6 4/6to4/7 4/7to5/7 5/7to6/7 6/7to6/6"/>
    </vehicle>
    <vehicle id="30" depart="0.60">
        <route edges="1/0to1/1 1/1to1/2 1/2to1/3 1/3to1/4 1/4to1/5 1/5to2/5 2/5to3/5 3/5to4/5 4/5to5/5 5/5to6/5 6/5to6/6"/>
    </vehicle>
    <vehicle id="31" depart="0.62">
        <route edges="2/3to3/3 3/3to3/4 3/4to3/5 3/5to3/6 3/6to4/6 4/6to5/6 5/6to6/6 6/6to5/6"/>
    </vehicle>
    <vehicle id="32" depart="0.64">
        <route edges="0/6to1/6 1/6to1/5 1/5to1/4 1/4to1/3 1/3to1/2 1/2to2/2 2/2to3/2 3/2to4/2 4/2to3/2"/>
    </vehicle>
    <vehicle id="33" depart="0.66">
        <route edges="7/2to7/1 7/1to7/2 7/2to7/3 7/3to7/2"/>
    </vehicle>
    <vehicle id="34" depart="0.68">
        <route edges="1/3to1/4 1/4to2/4 2/4to2/5"/>
    </vehicle>
    <vehicle id="35" depart="0.70">
        <route edges="5/3to4/3 4/3to3/3 3/3to2/3 2/3to1/3 1/3to0/3 0/3to0/4 0/4to0/5 0/5to0/6 0/6to0/5"/>
    </vehicle>
    <vehicle id="36" depart="0.72">
        <route edges="1/1to0/1 0/1to0/2 0/2to1/2 1/2to2/2 2/2to3/2"/>
    </vehicle>
    <vehicle id="37" depart="0.74">
        <route edges="5/2to4/2 4/2to4/3 4/3to4/4 4/4to4/5 4/5to4/6 4/6to4/7 4/7to5/7 5/7to5/6"/>
    </vehicle>
    <vehicle id="38" depart="0.76">
        <route edges="0/3to0/4 0/4to0/3 0/3to0/2 0/2to1/2 1/2to2/2 2/2to3/2 3/2to3/3"/>
    </vehicle>
    <vehicle id="39" depart="0.78">
        <route edges="3/2to3/3 3/3to2/3 2/3to1/3 1/3to1/2 1/2to1/1 1/1to2/1"/>
    </vehicle>
    <vehicle id="40" depart="0.80">
        <route edges="0/0to0/1 0/1to0/2 0/2to1/2 1/2to2/2 2/2to3/2 3/2to4/2 4/2to3/2"/>
    </vehicle>
    <vehicle id="41" depart="0.82">
        <route edges="0/4to0/5 0/5to0/4 0/4to0/3 0/3to1/3 1/3to2/3 2/3to2/2"/>
    </vehicle>
    <vehicle id="42" depart="0.84">
        <route edges="4/3to4/2 4/2to4/3 4/3to4/4 4/4to5/4 5/4to5/3"/>
    </vehicle>
    <vehicle id="43" depart="0.86">
        <route edges="5/4to6/4 6/4to6/5 6/5to5/5"/>
    </vehicle>
    <vehicle id="44" depart="0.88">
        <route edges="4/0to3/0 3/0to2/0 2/0to2/1 2/1to2/2 2/2to2/1"/>
    </vehicle>
    <vehicle id="45" depart="0.90">
        <route edges="3/3to2/3 2/3to3/3 3/3to4/3 4/3to5/3 5/3to6/3 6/3to7/3 7/3to7/4"/>
    </vehicle>
    <vehicle id="46" depart="0.92">
        <route edges="1/4to0/4 0/4to0/5 0/5to1/5 1/5to2/5 2/5to3/5 3/5to4/5 4/5to5/5 5/5to4/5"/>
    </vehicle>
    <vehicle id="47" depart="0.94">
        <route edges="5/4to5/5 5/5to4/5 4/5to3/5 3/5to2/5 2/5to2/4 2/4to2/3 2/3to2/2 2/2to2/1 2/1to2/2"/>
    </vehicle>
    <vehicle id="48" depart="0.96">
        <route edges="5/1to4/1 4/1to4/2 4/2to4/3 4/3to4/4 4/4to4/5 4/5to4/6 4/6to5/6 5/6to6/6 6/6to5/6"/>
    </vehicle>
    <vehicle id="49" depart="0.98">
        <route edges="1/2to0/2 0/2to0/3 0/3to0/4 0/4to0/5 0/5to1/5 1/5to2/5 2/5to3/5 3/5to4/5 4/5to5/5 5/5to6/5 6/5to7/5 7/5to6/5"/>
    </vehicle>
    <vehicle id="50" depart="1.00">
        <route edges="4/4to4/3 4/3to3/3 3/3to2/3 2/3to2/4 2/4to2/5 2/5to1/5"/>
    </vehicle>
    <vehicle id="51" depart="1.02">
        <route edges="4/1to4/0 4/0to5/0 5/0to5/1"/>
    </vehicle>
    <vehicle id="52" depart="1.04">
        <route edges="4/5to5/5 5/5to5/4 5/4to5/3 5/3to5/2 5/2to6/2 6/2to7/2 7/2to6/2"/>
    </vehicle>
    <vehicle id="53" depart="1.06">
        <route edges="3/2to2/2 2/2to1/2 1/2to0/2 0/2to0/3 0/3to1/3"/>
    </vehicle>
    <vehicle id="54" depart="1.08">
        <route edges="6/6to5/6 5/6to4/6 4/6to3/6 3/6to2/6 2/6to2/7 2/7to1/7"/>
    </vehicle>
    <vehicle id="55" depart="1.10">
        <route edges="1/4to2/4 2/4to3/4 3/4to3/3"/>
    </vehicle>
    <vehicle id="56" depart="1.12">
        <route edges="0/0to0/1 0/1to0/2 0/2to0/3 0/3to0/4 0/4to0/5 0/5to0/6 0/6to1/6 1/6to1/7 1/7to2/7"/>
    </vehicle>
    <vehicle id="57" depart="1.14">
        <route edges="4/6to4/7 4/7to4/6 4/6to4/5 4/5to5/5 5/5to6/5 6/5to6/4"/>
    </vehicle>
    <vehicle id="58" depart="1.16">
        <route edges="1/4to1/3 1/3to1/2 1/2to2/2 2/2to3/2 3/2to4/2 4/2to5/2 5/2to6/2 6/2to7/2 7/2to6/2"/>
    </vehicle>
    <vehicle id="59" depart="1.18">
        <route edges="2/4to1/4 1/4to1/5 1/5to0/5"/>
    </vehicle>
    <vehicle id="60" depart="1.20">
        <route edges="1/4to1/3 1/3to1/2 1/2to1/1 1/1to1/0 1/0to2/0 2/0to2/1"/>
    </vehicle>
    <vehicle id="61" depart="1.22">
        <route edges="2/3to2/4 2/4to2/5 2/5to3/5 3/5to4/5 4/5to5/5 5/5to6/5"/>
    </vehicle>
    <vehicle id="62" depart="1.24">
        <route edges="3/4to2/4 2/4to2/3 2/3to2/2 2/2to3/2 3/2to4/2 4/2to5/2 5/2to6/2 6/2to7/2 7/2to7/3"/>
    </vehicle>
    <vehicle id="63" depart="1.26">
        <route edges="3/0to4/0 4/0to4/1 4/1to4/2 4/2to4/3 4/3to4/4 4/4to4/5 4/5to4/6 4/6to4/7 4/7to5/7 5/7to6/7 6/7to7/7"/>
    </vehicle>
    <vehicle id="64" depart="1.28">
        <route edges="1/1to1/2 1/2to1/1 1/1to1/0 1/0to0/0"/>
    </vehicle>
    <vehicle id="65" depart="1.30">
        <route edges="1/4to0/4 0/4to0/5 0/5to0/6 0/6to0/5"/>
    </vehicle>
    <vehicle id="66" depart="1.32">
        <route edges="6/7to6/6 6/6to5/6 5/6to4/6 4/6to4/5 4/5to4/4 4/4to4/3 4/3to4/2 4/2to4/1 4/1to4/0"/>
    </vehicle>
    <vehicle id="67" depart="1.34">
        <route edges="6/2to6/1 6/1to5/1 5/1to4/1 4/1to4/2 4/2to4/3 4/3to4/4 4/4to4/5 4/5to4/6 4/6to4/7 4/7to3/7"/>
    </vehicle>
    <vehicle id="68" depart="1.36">
        <route edges="0/3to0/2 0/2to0/3 0/3to0/4 0/4to0/5 0/5to0/6 0/6to1/6 1/6to1/7 1/7to0/7"/>
    </vehicle>
    <vehicle id="69" depart="1.38">
        <route edges="5/4to6/4 6/4to5/4 5/4to4/4 4/4to3/4 3/4to2/4 2/4to2/3 2/3to3/3"/>
    </vehicle>
    <vehicle id="70" depart="1.40">
        <route edges="2/5to2/6 2/6to2/5 2/5to2/4 2/4to2/3 2/3to3/3 3/3to4/3 4/3to5/3 5/3to5/4"/>
    </vehicle>
    <vehicle id="71" depart="1.42">
        <route edges="6/1to5/1 5/1to4/1 4/1to3/1 3/1to2/1 2/1to2/2 2/2to3/2"/>
    </vehicle>
    <vehicle id="72" depart="1.44">
        <route edges="0/6to0/5 0/5to0/4 0/4to1/4 1/4to2/4 2/4to2/5"/>
    </vehicle>
    <vehicle id="73" depart="1.46">
        <route edges="6/4to6/5 6/5to5/5 5/5to4/5 4/5to3/5 3/5to3/4 3/4to3/3 3/3to3/2 3/2to3/1 3/1to3/2"/>
    </vehicle>
    <vehicle id="74" depart="1.48">
        <route edges="4/4to4/3 4/3to3/3 3/3to3/2 3/2to3/1 3/1to3/0 3/0to2/0"/>
    </vehicle>
    <vehicle id="75" depart="1.50">
        <route edges="6/6to6/7 6/7to5/7 5/7to4/7 4/7to3/7 3/7to3/6 3/6to3/5 3/5to3/4 3/4to3/3 3/3to4/3"/>
    </vehicle>
    <vehicle id="76" depart="1.52">
        <route edges="1/2to1/1 1/1to1/2 1/2to1/3 1/3to2/3 2/3to3/3 3/3to4/3 4/3to4/2"/>
    </vehicle>
    <vehicle id="77" depart="1.54">
        <route edges="6/5to7/5 7/5to6/5 6/5to5/5 5/5to4/5 4/5to3/5 3/5to3/4 3/4to3/3 3/3to3/2 3/2to3/1 3/1to3/0 3/0to3/1"/>
    </vehicle>
    <vehicle id="78" depart="1.56">
        <route edges="5/3to5/4 5/4to4/4 4/4to3/4 3/4to2/4 2/4to2/5 2/5to2/6"/>
    </vehicle>
    <vehicle id="79" depart="1.58">
        <route edges="6/6to6/7 6/7to5/7 5/7to4/7 4/7to3/7 3/7to2/7 2/7to2/6"/>
    </vehicle>
    <vehicle id="80" depart="1.60">
        <route edges="7/0to7/1 7/1to6/1 6/1to5/1 5/1to4/1 4/1to4/2 4/2to4/3 4/3to4/4 4/4to4/5 4/5to4/6 4/6to4/7 4/7to4/6"/>
    </vehicle>
    <vehicle id="81" depart="1.62">
        <route edges="4/1to5/1 5/1to5/2 5/2to5/3 5/3to5/4 5/4to5/5 5/5to6/5 6/5to7/5 7/5to7/6"/>
    </vehicle>
    <vehicle id="82" depart="1.64">
        <route edges="1/2to1/3 1/3to2/3 2/3to3/3"/>
    </vehicle>
    <vehicle id="83" depart="1.66">
        <route edges="6/3to5/3 5/3to5/4 5/4to5/5 5/5to4/5"/>
    </vehicle>
    <vehicle id="84" depart="1.68">
        <route edges="1/4to2/4 2/4to2/3 2/3to2/2 2/2to2/1 2/1to2/0 2/0to1/0"/>
    </vehicle>
    <vehicle id="85" depart="1.70">
        <route edges="5/4to5/3 5/3to4/3 4/3to3/3 3/3to2/3 2/3to1/3 1/3to1/2 1/2to0/2"/>
    </vehicle>
    <vehicle id="86" depart="1.72">
        <route edges="4/3to5/3 5/3to4/3 4/3to3/3 3/3to2/3 2/3to2/2 2/2to2/1 2/1to2/2"/>
    </vehicle>
    <vehicle id="87" depart="1.74">
        <route edges="1/2to2/2 2/2to2/1 2/1to3/1 3/1to4/1 4/1to3/1"/>
    </vehicle>
    <vehicle id="88" depart="1.76">
        <route edges="3/0to2/0 2/0to2/1 2/1to3/1 3/1to4/1 4/1to5/1 5/1to4/1"/>
    </vehicle>
    <vehicle id="89" depart="1.78">
        <route edges="5/6to4/6 4/6to4/5 4/5to4/4 4/4to4/5"/>
    </vehicle>
    <vehicle id="90" depart="1.80">
        <route edges="2/5to2/4 2/4to2/5 2/5to2/6 2/6to3/6 3/6to4/6 4/6to5/6"/>
    </vehicle>
    <vehicle id="91" depart="1.82">
        <route edges="6/4to5/4 5/4to5/3 5/3to5/4"/>
    </vehicle>
    <vehicle id="92" depart="1.84">
        <route edges="4/5to5/5 5/5to4/5 4/5to3/5 3/5to2/5 2/5to2/6 2/6to2/7"/>
    </vehicle>
    <vehicle id="93" depart="1.86">
        <route edges="7/5to7/4 7/4to6/4 6/4to5/4 5/4to4/4 4/4to3/4 3/4to3/3 3/3to3/2 3/2to3/1 3/1to3/2"/>
    </vehicle>
    <vehicle id="94" depart="1.88">
        <route edges="6/1to6/2 6/2to6/3 6/3to6/4 6/4to6/5 6/5to7/5 7/5to7/6"/>
    </vehicle>
    <vehicle id="95" depart="1.90">
        <route edges="7/2to7/3 7/3to6/3 6/3to5/3 5/3to5/4"/>
    </vehicle>
    <vehicle id="96" depart="1.92">
        <route edges="5/0to6/0 6/0to6/1 6/1to6/2 6/2to7/2 7/2to6/2"/>
    </vehicle>
    <vehicle id="97" depart="1.94">
        <route edges="2/5to2/4 2/4to1/4 1/4to1/3 1/3to1/2 1/2to1/1"/>
    </vehicle>
    <vehicle id="98" depart="1.96">
        <route edges="0/0to0/1 0/1to0/2 0/2to0/3 0/3to0/4 0/4to0/5 0/5to1/5 1/5to2/5 2/5to3/5 3/5to4/5 4/5to5/5"/>
    </vehicle>
    <vehicle id="99" depart="1.98">
        <route edges="3/7to3/6 3/6to3/5 3/5to3/4 3/4to3/3 3/3to3/2 3/2to3/1 3/1to3/0 3/0to4/0 4/0to5/0 5/0to6/0 6/0to7/0"/>
    </vehicle>
    <vehicle id="100" depart="2.00">
        <route edges="2/1to2/0 2/0to2/1 2/1to2/2 2/2to2/3 2/3to2/4 2/4to2/5 2/5to2/6 2/6to3/6 3/6to4/6 4/6to5/6 5/6to6/6 6/6to6/5"/>
    </vehicle>
    <vehicle id="101" depart="2.02">
        <route edges="0/5to0/6 0/6to1/6 1/6to1/7 1/7to2/7 2/7to3/7 3/7to4/7 4/7to5/7"/>
    </vehicle>
    <vehicle id="102" depart="2.04">
        <route edges="3/1to3/2 3/2to4/2"/>
    </vehicle>
    <vehicle id="103" depart="2.06">
        <route edges="5/5to6/5 6/5to5/5 5/5to4/5 4/5to3/5 3/5to2/5 2/5to1/5 1/5to0/5 0/5to0/4 0/4to0/3 0/3to0/4"/>
    </vehicle>
    <vehicle id="104" depart="2.08">
        <route edges="0/0to0/1 0/1to1/1 1/1to2/1 2/1to3/1 3/1to3/0"/>
    </vehicle>
    <vehicle id="105" depart="2.10">
        <route edges="5/2to5/3 5/3to4/3 4/3to3/3 3/3to3/4 3/4to3/5 3/5to3/6 3/6to3/7"/>
    </vehicle>
    <vehicle id="106" depart="2.12">
        <route edges="6/2to6/3 6/3to5/3 5/3to4/3 4/3to3/3 3/3to3/4 3/4to3/5 3/5to3/6 3/6to3/7"/>
    </vehicle>
    <vehicle id="107" depart="2.14">
        <route edges="6/3to7/3 7/3to7/4 7/4to7/5"/>
    </vehicle>
    <vehicle id="108" depart="2.16">
        <route edges="3/2to4/2 4/2to3/2 3/2to2/2 2/2to1/2 1/2to0/2 0/2to0/3"/>
    </vehicle>
    <vehicle id="109" depart="2.18">
        <route edges="3/6to4/6 4/6to4/5 4/5to4/4 4/4to4/3 4/3to4/2 4/2to4/1 4/1to4/0 4/0to4/1"/>
    </vehicle>
    <vehicle id="110" depart="2.20">
        <route edges="3/1to3/2 3/2to2/2 2/2to1/2 1/2to1/1 1/1to1/0 1/0to0/0"/>
    </vehicle>
    <vehicle id="111" depart="2.22">
        <route edges="7/4to7/3 7/3to7/4 7/4to7/5"/>
    </vehicle>
    <vehicle id="112" depart="2.24">
        <route edges="7/6to6/6 6/6to5/6 5/6to4/6 4/6to3/6 3/6to2/6 2/6to2/5 2/5to2/4 2/4to2/5"/>
    </vehicle>
    <vehicle id="113" depart="2.26">
        <route edges="1/2to2/2 2/2to2/1 2/1to3/1 3/1to4/1 4/1to5/1 5/1to4/1"/>
    </vehicle>
    <vehicle id="114" depart="2.28">
        <route edges="4/0to4/1 4/1to3/1 3/1to2/1 2/1to1/1 1/1to0/1 0/1to0/2 0/2to0/3 0/3to0/4 0/4to0/5 0/5to0/6"/>
    </vehicle>
    <vehicle id="115" depart="2.30">
        <route edges="1/5to0/5 0/5to0/6 0/6to1/6 1/6to2/6 2/6to3/6 3/6to4/6 4/6to4/7"/>
    </vehicle>
    <vehicle id="116" depart="2.32">
        <route edges="1/4to1/3 1/3to1/4 1/4to1/5 1/5to1/6 1/6to0/6"/>
    </vehicle>
    <vehicle id="117" depart="2.34">
        <route edges="5/1to5/2 5/2to4/2 4/2to4/3 4/3to3/3"/>
    </vehicle>
    <vehicle id="118" depart="2.36">
        <route edges="4/3to3/3 3/3to2/3 2/3to1/3 1/3to0/3 0/3to0/4 0/4to0/5 0/5to0/6 0/6to0/7"/>
    </vehicle>
    <vehicle id="119" depart="2.38">
        <route edges="3/5to4/5 4/5to4/4 4/4to4/3 4/3to3/3"/>
    </vehicle>
    <vehicle id="120" depart="2.40">
        <route edges="3/3to4/3 4/3to3/3 3/3to3/4 3/4to3/5 3/5to3/6 3/6to3/7 3/7to2/7"/>
    </vehicle>
    <vehicle id="121" depart="2.42">
        <route edges="3/1to4/1 4/1to3/1 3/1to2/1 2/1to1/1 1/1to0/1 0/1to0/2 0/2to0/1"/>
    </vehicle>
    <vehicle id="122" depart="2.44">
        <route edges="3/6to4/6 4/6to3/6 3/6to2/6 2/6to3/6"/>
    </vehicle>
    <vehicle id="123" depart="2.46">
        <route edges="3/2to3/1 3/1to2/1 2/1to1/1 1/1to1/2 1/2to1/3 1/3to1/4 1/4to1/5 1/5to1/6 1/6to1/7 1/7to2/7"/>
    </vehicle>
    <vehicle id="124" depart="2.48">
        <route edges="3/6to2/6 2/6to1/6 1/6to1/5 1/5to1/4 1/4to1/3 1/3to1/2 1/2to1/1"/>
    </vehicle>
    <vehicle id="125" depart="2.50">
        <route edges="1/1to1/2 1/2to1/1 1/1to1/0 1/0to2/0 2/0to3/0"/>
    </vehicle>
    <vehicle id="126" depart="2.52">
        <route edges="7/7to6/7 6/7to6/6 6/6to6/5 6/5to6/4 6/4to6/3 6/3to6/2 6/2to6/1 6/1to5/1"/>
    </vehicle>
    <vehicle id="127" depart="2.54">
        <route edges="0/7to1/7 1/7to1/6 1/6to1/5 1/5to1/4 1/4to1/3 1/3to1/2 1/2to1/1 1/1to1/2"/>
    </vehicle>
    <vehicle id="128" depart="2.56">
        <route edges="2/6to2/7 2/7to2/6 2/6to2/5 2/5to2/4 2/4to2/3 2/3to2/2 2/2to3/2 3/2to4/2 4/2to5/2 5/2to6/2 6/2to6/1"/>
    </vehicle>
    <vehicle id="129" depart="2.58">
        <route edges="2/3to2/4 2/4to2/3 2/3to2/2 2/2to2/1 2/1to2/0"/>
    </vehicle>
    <vehicle id="130" depart="2.60">
        <route edges="6/0to7/0 7/0to6/0 6/0to6/1 6/1to6/2 6/2to6/3 6/3to6/4 6/4to6/5 6/5to6/4"/>
    </vehicle>
    <vehicle id="131" depart="2.62">
        <route edges="6/7to5/7 5/7to5/6 5/6to5/5 5/5to5/4 5/4to5/3 5/3to5/4"/>
    </vehicle>
    <vehicle id="132" depart="2.64">
        <route edges="5/3to4/3 4/3to4/4 4/4to4/5 4/5to4/6 4/6to4/7 4/7to5/7 5/7to6/7 6/7to6/6"/>
    </vehicle>
    <vehicle id="133" depart="2.66">
        <route edges="6/3to6/2 6/2to5/2 5/2to4/2 4/2to4/1 4/1to4/0 4/0to5/0"/>
    </vehicle>
    <vehicle id="134" depart="2.68">
        <route edges="7/4to6/4 6/4to6/3 6/3to6/2 6/2to6/1 6/1to6/0 6/0to7/0 7/0to7/1"/>
    </vehicle>
    <vehicle id="135" depart="2.70">
        <route edges="2/3to2/2 2/2to2/1 2/1to3/1 3/1to4/1 4/1to5/1 5/1to6/1 6/1to7/1 7/1to7/0"/>
    </vehicle>
    <vehicle id="136" depart="2.72">
        <route edges="5/6to6/6 6/6to5/6 5/6to4/6 4/6to4/5 4/5to4/4 4/4to4/3 4/3to4/2 4/2to4/1"/>
    </vehicle>
    <vehicle id="137" depart="2.74">
        <route edges="1/4to2/4 2/4to2/3 2/3to2/2 2/2to2/1 2/1to3/1 3/1to3/2"/>
    </vehicle>
    <vehicle id="138" depart="2.76">
        <route edges="6/1to6/0 6/0to5/0 5/0to4/0 4/0to3/0 3/0to2/0 2/0to1/0 1/0to1/1 1/1to1/2 1/2to1/3 1/3to1/4 1/4to1/5 1/5to1/6 1/6to1/5"/>
    </vehicle>
    <vehicle id="139" depart="2.78">
        <route edges="1/6to2/6 2/6to2/5 2/5to2/4 2/4to2/3 2/3to2/2"/>
    </vehicle>
    <vehicle id="140" depart="2.80">
        <route edges="7/3to7/4 7/4to6/4 6/4to6/5 6/5to6/6 6/6to6/7 6/7to6/6"/>
    </vehicle>
    <vehicle id="141" depart="2.82">
        <route edges="6/0to5/0 5/0to5/1 5/1to5/2 5/2to6/2 6/2to7/2 7/2to7/1"/>
    </vehicle>
    <vehicle id="142" depart="2.84">
        <route edges="3/7to2/7 2/7to1/7 1/7to1/6 1/6to0/6"/>
    </vehicle>
    <vehicle id="143" depart="2.86">
        <route edges="4/0to4/1 4/1to3/1 3/1to2/1 2/1to1/1 1/1to1/2 1/2to1/3 1/3to1/4 1/4to1/5 1/5to1/6 1/6to1/7 1/7to2/7"/>
    </vehicle>
    <vehicle id="144" depart="2.88">
        <route edges="7/2to7/3 7/3to6/3 6/3to5/3 5/3to4/3 4/3to3/3 3/3to2/3 2/3to1/3 1/3to1/4 1/4to1/5 1/5to1/6 1/6to0/6"/>
    </vehicle>
    <vehicle id="145" depart="2.90">
        <route edges="2/6to1/6 1/6to0/6 0/6to0/5 0/5to0/4"/>
    </vehicle>
    <vehicle id="146" depart="2.92">
        <route edges="7/4to7/5 7/5to6/5 6/5to5/5 5/5to5/6 5/6to5/7 5/7to5/6"/>
    </vehicle>
    <vehicle id="147" depart="2.94">
        <route edges="4/3to4/4 4/4to4/5 4/5to4/4"/>
    </vehicle>
    <vehicle id="148" depart="2.96">
        <route edges="3/7to3/6 3/6to3/5 3/5to3/4 3/4to3/3 3/3to3/2 3/2to4/2 4/2to5/2 5/2to6/2 6/2to6/1"/>
    </vehicle>
    <vehicle id="149" depart="2.98">
        <route edges="3/5to4/5 4/5to3/5 3/5to3/4 3/4to3/3 3/3to3/2 3/2to3/1"/>
    </vehicle>
    <vehicle id="150" depart="3.00">
        <route edges="7/1to7/2 7/2to6/2 6/2to5/2 5/2to4/2 4/2to3/2 3/2to2/2 2/2to1/2 1/2to1/1"/>
    </vehicle>
    <vehicle id="151" depart="3.02">
        <route edges="2/1to1/1 1/1to1/0 1/0to2/0 2/0to3/0 3/0to4/0 4/0to5/0 5/0to6/0 6/0to6/1"/>
    </vehicle>
    <vehicle id="152" depart="3.04">
        <route edges="5/7to5/6 5/6to4/6 4/6to3/6 3/6to2/6 2/6to1/6 1/6to1/7 1/7to1/6"/>
    </vehicle>
    <vehicle id="153" depart="3.06">
        <route edges="3/1to2/1 2/1to2/2 2/2to2/3 2/3to2/4 2/4to2/5 2/5to2/6 2/6to1/6"/>
    </vehicle>
    <vehicle id="154" depart="3.08">
        <route edges="3/7to3/6 3/6to3/7 3/7to4/7 4/7to5/7 5/7to6/7 6/7to7/7 7/7to7/6"/>
    </vehicle>
    <vehicle id="155" depart="3.10">
        <route edges="6/6to5/6 5/6to4/6 4/6to3/6 3/6to2/6 2/6to2/5 2/5to2/4 2/4to2/3 2/3to2/2 2/2to2/3"/>
    </vehicle>
    <vehicle id="156" depart="3.12">
        <route edges="4/0to5/0 5/0to5/1 5/1to4/1"/>
    </vehicle>
    <vehicle id="157" depart="3.14">
        <route edges="6/6to6/7 6/7to5/7 5/7to4/7 4/7to3/7 3/7to2/7 2/7to2/6 2/6to2/5 2/5to2/4 2/4to2/3 2/3to2/2 2/2to2/3"/>
    </vehicle>
    <vehicle id="158" depart="3.16">
        <route edges="5/5to5/6 5/6to4/6 4/6to4/5 4/5to4/4 4/4to4/3 4/3to4/2 4/2to4/3"/>
    </vehicle>
    <vehicle id="159" depart="3.18">
        <route edges="3/6to4/6 4/6to3/6 3/6to2/6 2/6to2/5 2/5to2/6"/>
    </vehicle>
    <vehicle id="160" depart="3.20">
        <route edges="3/1to4/1 4/1to4/2 4/2to4/3 4/3to4/4 4/4to4/5 4/5to4/6 4/6to3/6"/>
    </vehicle>
    <vehicle id="161" depart="3.22">
        <route edges="2/0to2/1 2/1to2/2 2/2to2/3 2/3to2/4 2/4to2/5 2/5to3/5 3/5to2/5"/>
    </vehicle>
    <vehicle id="162" depart="3.24">
        <route edges="3/6to3/7 3/7to3/6 3/6to3/5 3/5to3/4 3/4to4/4 4/4to5/4 5/4to6/4"/>
    </vehicle>
    <vehicle id="163" depart="3.26">
        <route edges="3/5to3/4 3/4to3/5 3/5to3/6 3/6to4/6 4/6to5/6 5/6to6/6 6/6to6/5"/>
    </vehicle>
    <vehicle id="164" depart="3.28">
        <route edges="0/0to0/1 0/1to0/2 0/2to0/3 0/3to0/4 0/4to0/5 0/5to1/5 1/5to2/5 2/5to3/5 3/5to2/5"/>
    </vehicle>
    <vehicle id="165" depart="3.30">
        <route edges="2/7to2/6 2/6to1/6 1/6to1/5 1/5to1/4 1/4to1/3 1/3to1/2 1/2to2/2"/>
    </vehicle>
    <vehicle id="166" depart="3.32">
        <route edges="5/1to5/0 5/0to4/0 4/0to3/0 3/0to2/0 2/0to1/0 1/0to1/1 1/1to0/1 0/1to0/2 0/2to0/3 0/3to1/3"/>
    </vehicle>
    <vehicle id="167" depart="3.34">
        <route edges="1/4to0/4 0/4to0/3 0/3to1/3 1/3to2/3 2/3to3/3 3/3to4/3 4/3to5/3"/>
    </vehicle>
    <vehicle id="168" depart="3.36">
        <route edges="2/7to3/7 3/7to3/6 3/6to3/5 3/5to3/4 3/4to3/3 3/3to3/2 3/2to2/2"/>
    </vehicle>
    <vehicle id="169" depart="3.38">
        <route edges="0/2to0/1 0/1to0/2 0/2to0/3 0/3to0/4 0/4to0/5 0/5to1/5 1/5to2/5 2/5to3/5 3/5to4/5 4/5to5/5 5/5to6/5"/>
    </vehicle>
    <vehicle id="170" depart="3.40">
        <route edges="1/5to1/4 1/4to1/3 1/3to1/2 1/2to1/1 1/1to1/0 1/0to2/0 2/0to3/0 3/0to3/1"/>
    </vehicle>
    <vehicle id="171" depart="3.42">
        <route edges="0/2to0/1 0/1to0/2 0/2to0/3 0/3to0/4 0/4to0/5 0/5to1/5 1/5to2/5 2/5to3/5 3/5to4/5 4/5to3/5"/>
    </vehicle>
    <vehicle id="172" depart="3.44">
        <route edges="6/3to7/3 7/3to6/3"/>
    </vehicle>
    <vehicle id="173" depart="3.46">
        <route edges="3/5to3/4 3/4to4/4 4/4to5/4 5/4to6/4 6/4to6/3"/>
    </vehicle>
    <vehicle id="174" depart="3.48">
        <route edges="2/5to2/4 2/4to2/5 2/5to3/5 3/5to4/5 4/5to5/5"/>
    </vehicle>
    <vehicle id="175" depart="3.50">
        <route edges="6/0to7/0 7/0to6/0 6/0to5/0 5/0to4/0 4/0to3/0 3/0to3/1 3/1to3/2 3/2to3/3 3/3to3/4 3/4to3/5 3/5to3/6 3/6to3/5"/>
    </vehicle>
    <vehicle id="176" depart="3.52">
        <route edges="1/3to2/3 2/3to2/2 2/2to2/1 2/1to2/0 2/0to1/0"/>
    </vehicle>
    <vehicle id="177" depart="3.54">
        <route edges="6/0to7/0 7/0to6/0 6/0to5/0 5/0to5/1 5/1to5/0"/>
    </vehicle>
    <vehicle id="178" depart="3.56">
        <route edges="4/2to3/2 3/2to2/2 2/2to1/2 1/2to1/1"/>
    </vehicle>
    <vehicle id="179" depart="3.58">
        <route edges="6/4to5/4 5/4to5/3 5/3to6/3 6/3to7/3 7/3to7/2"/>
    </vehicle>
    <vehicle id="180" depart="3.60">
        <route edges="7/6to7/5 7/5to6/5 6/5to5/5 5/5to4/5 4/5to3/5 3/5to2/5 2/5to2/4 2/4to1/4"/>
    </vehicle>
    <vehicle id="181" depart="3.62">
        <route edges="0/0to0/1 0/1to0/0 0/0to1/0"/>
    </vehicle>
    <vehicle id="182" depart="3.64">
        <route edges="3/2to3/3 3/3to3/2 3/2to3/1 3/1to4/1 4/1to5/1 5/1to6/1 6/1to7/1 7/1to6/1"/>
    </vehicle>
    <vehicle id="183" depart="3.66">
        <route edges="5/5to5/4 5/4to6/4 6/4to6/3"/>
    </vehicle>
    <vehicle id="184" depart="3.68">
        <route edges="6/6to5/6 5/6to5/7"/>
    </vehicle>
    <vehicle id="185" depart="3.70">
        <route edges="1/2to1/1 1/1to1/2 1/2to1/3 1/3to1/4 1/4to2/4 2/4to3/4 3/4to4/4 4/4to4/5"/>
    </vehicle>
    <vehicle id="186" depart="3.72">
        <route edges="5/1to4/1 4/1to4/2 4/2to4/3 4/3to4/4 4/4to4/5 4/5to4/4"/>
    </vehicle>
    <vehicle id="187" depart="3.74">
        <route edges="5/2to5/3 5/3to4/3 4/3to3/3 3/3to2/3 2/3to2/4 2/4to2/5"/>
    </vehicle>
    <vehicle id="188" depart="3.76">
        <route edges="7/5to7/4 7/4to6/4 6/4to5/4 5/4to4/4 4/4to3/4 3/4to2/4 2/4to1/4 1/4to0/4 0/4to0/3 0/3to0/2"/>
    </vehicle>
    <vehicle id="189" depart="3.78">
        <route edges="4/1to5/1 5/1to4/1 4/1to3/1 3/1to3/2 3/2to3/3 3/3to3/4 3/4to3/5 3/5to3/6 3/6to2/6"/>
    </vehicle>
    <vehicle id="190" depart="3.80">
        <route edges="2/4to2/5 2/5to2/4 2/4to2/3 2/3to2/2 2/2to3/2 3/2to4/2 4/2to3/2"/>
    </vehicle>
    <vehicle id="191" depart="3.82">
        <route edges="3/6to3/5 3/5to2/5 2/5to2/4 2/4to3/4"/>
    </vehicle>
    <vehicle id="192" depart="3.84">
        <route edges="7/7to7/6 7/6to6/6 6/6to5/6 5/6to4/6 4/6to3/6 3/6to2/6 2/6to1/6 1/6to1/5 1/5to1/4 1/4to1/3 1/3to1/2 1/2to1/1 1/1to0/1"/>
    </vehicle>
    <vehicle id="193" depart="3.86">
        <route edges="2/0to2/1 2/1to2/2 2/2to2/3 2/3to2/4 2/4to3/4 3/4to4/4 4/4to5/4 5/4to6/4 6/4to7/4"/>
    </vehicle>
    <vehicle id="194" depart="3.88">
        <route edges="5/5to5/4 5/4to4/4 4/4to3/4 3/4to3/3 3/3to2/3"/>
    </vehicle>
    <vehicle id="195" depart="3.90">
        <route edges="2/7to2/6 2/6to3/6 3/6to4/6 4/6to5/6 5/6to6/6 6/6to6/7"/>
    </vehicle>
    <vehicle id="196" depart="3.92">
        <route edges="5/2to6/2 6/2to5/2 5/2to4/2 4/2to4/3 4/3to4/4 4/4to4/3"/>
    </vehicle>
    <vehicle id="197" depart="3.94">
        <route edges="2/7to1/7 1/7to1/6 1/6to0/6 0/6to0/5 0/5to0/4 0/4to0/3 0/3to0/2"/>
    </vehicle>
    <vehicle id="198" depart="3.96">
        <route edges="7/2to6/2 6/2to5/2 5/2to4/2 4/2to4/1 4/1to4/0 4/0to4/1"/>
    </vehicle>
    <vehicle id="199" depart="3.98">
        <route edges="2/1to3/1 3/1to3/2 3/2to3/3 3/3to3/4 3/4to3/5"/>
    </vehicle>
    <vehicle id="200" depart="4.00">
        <route edges="4/6to4/5 4/5to4/4 4/4to3/4"/>
    </vehicle>
    <vehicle id="201" depart="4.02">
        <route edges="4/6to3/6 3/6to3/7 3/7to4/7"/>
    </vehicle>
    <vehicle id="202" depart="4.04">
        <route edges="0/2to1/2 1/2to1/3 1/3to1/4 1/4to1/5 1/5to1/6 1/6to2/6 2/6to3/6"/>
    </vehicle>
    <vehicle id="203" depart="4.06">
        <route edges="3/1to4/1 4/1to4/0 4/0to5/0"/>
    </vehicle>
    <vehicle id="204" depart="4.08">
        <route edges="6/7to6/6 6/6to5/6 5/6to4/6 4/6to3/6 3/6to3/5"/>
    </vehicle>
    <vehicle id="205" depart="4.10">
        <route edges="1/3to0/3 0/3to0/4 0/4to0/5 0/5to0/6 0/6to1/6 1/6to1/7 1/7to2/7 2/7to3/7 3/7to4/7 4/7to3/7"/>
    </vehicle>
    <vehicle id="206" depart="4.12">
        <route edges="3/5to2/5 2/5to2/4 2/4to3/4 3/4to4/4 4/4to5/4 5/4to6/4"/>
    </vehicle>
    <vehicle id="207" depart="4.14">
        <route edges="3/6to4/6 4/6to4/5 4/5to4/4 4/4to4/3 4/3to4/2 4/2to4/1 4/1to4/0 4/0to5/0 5/0to4/0"/>
    </vehicle>
    <vehicle id="208" depart="4.16">
        <route edges="0/2to0/1 0/1to0/2 0/2to0/3 0/3to0/4 0/4to0/5 0/5to1/5 1/5to2/5 2/5to3/5 3/5to4/5 4/5to5/5"/>
    </vehicle>
    <vehicle id="209" depart="4.18">