<?xml version="1.0" encoding="UTF-8"?>

<!-- generated on 05#09#18 23:27:31 by SUMO duarouter Version 0.24.0
<?xml version="1.0" encoding="UTF-8"?>

<configuration xmlns:xsi="http:##www.w3.org#2001#XMLSchema-instance" xsi:noNamespaceSchemaLocation="http:##sumo.dlr.de#xsd#duarouterConfiguration.xsd">

    <input>
        <net-file value="input_net.net.xml"/>
        <additional-files value="type.add.xml"/>
        <trip-files value="trips.trips.xml"/>
    </input>

    <output>
        <output-file value="routes.rou.xml"/>
    </output>

    <time>
        <begin value="0"/>
        <end value="660"/>
    </time>

</configuration>
-->

<routes xmlns:xsi="http:##www.w3.org#2001#XMLSchema-instance" xsi:noNamespaceSchemaLocation="http:##sumo.dlr.de#xsd#routes_file.xsd">
    <vType id="RSU" guiShape="bus" color="red"/>
    <vehicle id="1000" type="RSU" depart="0.00" departPos="67.48" color="red">
        <route edges="376"/>
        <stop lane="376_0" endPos="67.48" until="659.00" parking="1"/>
    </vehicle>
    <vehicle id="1001" type="RSU" depart="0.00" departPos="52.78" color="red">
        <route edges="469#0"/>
        <stop lane="469#0_0" endPos="52.78" until="659.00" parking="1"/>
    </vehicle>
    <vehicle id="1002" type="RSU" depart="0.00" departPos="940.93" color="red">
        <route edges="302"/>
        <stop lane="302_0" endPos="940.93" until="659.00" parking="1"/>
    </vehicle>
    <vehicle id="1003" type="RSU" depart="0.00" departPos="90.31" color="red">
        <route edges="590"/>
        <stop lane="590_0" endPos="90.31" until="659.00" parking="1"/>
    </vehicle>
    <vehicle id="1004" type="RSU" depart="0.00" departPos="91.88" color="red">
        <route edges="447#1"/>
        <stop lane="447#1_0" endPos="91.88" until="659.00" parking="1"/>
    </vehicle>
    <vehicle id="1005" type="RSU" depart="0.00" departPos="952.53" color="red">
        <route edges="530#0"/>
        <stop lane="530#0_0" endPos="952.53" until="659.00" parking="1"/>
    </vehicle>
    <vehicle id="1006" type="RSU" depart="0.00" departPos="9.64" color="red">
        <route edges="67#1"/>
        <stop lane="67#1_0" endPos="9.64" until="659.00" parking="1"/>
    </vehicle>
    <vehicle id="1007" type="RSU" depart="0.00" departPos="146.81" color="red">
        <route edges="594#2"/>
        <stop lane="594#2_0" endPos="146.81" until="659.00" parking="1"/>
    </vehicle>
    <vehicle id="1008" type="RSU" depart="0.00" departPos="113.92" color="red">
        <route edges="481"/>
        <stop lane="481_0" endPos="113.92" until="659.00" parking="1"/>
    </vehicle>
    <vehicle id="1009" type="RSU" depart="0.00" departPos="198.11" color="red">
        <route edges="543#4"/>
        <stop lane="543#4_0" endPos="198.11" until="659.00" parking="1"/>
    </vehicle>
    <vehicle id="1010" type="RSU" depart="0.00" departPos="75.82" color="red">
        <route edges="669#1"/>
        <stop lane="669#1_0" endPos="75.82" until="659.00" parking="1"/>
    </vehicle>
    <vehicle id="1011" type="RSU" depart="0.00" departPos="219.43" color="red">
        <route edges="459#1"/>
        <stop lane="459#1_0" endPos="219.43" until="659.00" parking="1"/>
    </vehicle>
    <vehicle id="1012" type="RSU" depart="0.00" departPos="38.51" color="red">
        <route edges="572"/>
        <stop lane="572_0" endPos="38.51" until="659.00" parking="1"/>
    </vehicle>
    <vehicle id="1013" type="RSU" depart="0.00" departPos="265.42" color="red">
        <route edges="549#2"/>
        <stop lane="549#2_0" endPos="265.42" until="659.00" parking="1"/>
    </vehicle>
    <vehicle id="1014" type="RSU" depart="0.00" departPos="82.67" color="red">
        <route edges="649#2"/>
        <stop lane="649#2_0" endPos="82.67" until="659.00" parking="1"/>
    </vehicle>
    <vehicle id="1015" type="RSU" depart="0.00" departPos="60.65" color="red">
        <route edges="485#5"/>
        <stop lane="485#5_0" endPos="60.65" until="659.00" parking="1"/>
    </vehicle>
    <vehicle id="1016" type="RSU" depart="0.00" departPos="155.44" color="red">
        <route edges="500"/>
        <stop lane="500_0" endPos="155.44" until="659.00" parking="1"/>
    </vehicle>
    <vehicle id="1017" type="RSU" depart="0.00" departPos="154.88" color="red">
        <route edges="60"/>
        <stop lane="60_0" endPos="154.88" until="659.00" parking="1"/>
    </vehicle>
    <vehicle id="1018" type="RSU" depart="0.00" departPos="56.58" color="red">
        <route edges="649#0"/>
        <stop lane="649#0_0" endPos="56.58" until="659.00" parking="1"/>
    </vehicle>
    <vehicle id="1019" type="RSU" depart="0.00" departPos="53.17" color="red">
        <route edges="395"/>
        <stop lane="395_0" endPos="53.17" until="659.00" parking="1"/>
    </vehicle>
    <vehicle id="1020" type="RSU" depart="0.00" departPos="127.45" color="red">
        <route edges="306"/>
        <stop lane="306_0" endPos="127.45" until="659.00" parking="1"/>
    </vehicle>
    <vehicle id="1021" type="RSU" depart="0.00" departPos="69.00" color="red">
        <route edges="357"/>
        <stop lane="357_0" endPos="69.00" until="659.00" parking="1"/>
    </vehicle>
    <vehicle id="1022" type="RSU" depart="0.00" departPos="32.87" color="red">
        <route edges="578"/>
        <stop lane="578_0" endPos="32.87" until="659.00" parking="1"/>
    </vehicle>
    <vehicle id="1023" type="RSU" depart="0.00" departPos="118.68" color="red">
        <route edges="407"/>
        <stop lane="407_0" endPos="118.68" until="659.00" parking="1"/>
    </vehicle>
    <vehicle id="1024" type="RSU" depart="0.00" departPos="114.21" color="red">
        <route edges="485#1"/>
        <stop lane="485#1_0" endPos="114.21" until="659.00" parking="1"/>
    </vehicle>
    <vehicle id="1025" type="RSU" depart="0.00" departPos="299.17" color="red">
        <route edges="495"/>
        <stop lane="495_0" endPos="299.17" until="659.00" parking="1"/>
    </vehicle>
    <vehicle id="1026" type="RSU" depart="0.00" departPos="45.53" color="red">
        <route edges="410#1"/>
        <stop lane="410#1_0" endPos="45.53" until="659.00" parking="1"/>
    </vehicle>
    <vehicle id="1027" type="RSU" depart="0.00" departPos="94.97" color="red">
        <route edges="299#1"/>
        <stop lane="299#1_0" endPos="94.97" until="659.00" parking="1"/>
    </vehicle>
    <vehicle id="1028" type="RSU" depart="0.00" departPos="124.54" color="red">
        <route edges="431#1"/>
        <stop lane="431#1_0" endPos="124.54" until="659.00" parking="1"/>
    </vehicle>
    <vehicle id="1029" type="RSU" depart="0.00" departPos="200.57" color="red">
        <route edges="359"/>
        <stop lane="359_0" endPos="200.57" until="659.00" parking="1"/>
    </vehicle>
    <vehicle id="1030" type="RSU" depart="0.00" departPos="122.98" color="red">
        <route edges="662#2"/>
        <stop lane="662#2_0" endPos="122.98" until="659.00" parking="1"/>
    </vehicle>
    <vehicle id="1031" type="RSU" depart="0.00" departPos="50.15" color="red">
        <route edges="418#0"/>
        <stop lane="418#0_0" endPos="50.15" until="659.00" parking="1"/>
    </vehicle>
    <vehicle id="1032" type="RSU" depart="0.00" departPos="764.28" color="red">
        <route edges="556"/>
        <stop lane="556_0" endPos="764.28" until="659.00" parking="1"/>
    </vehicle>
    <vehicle id="1033" type="RSU" depart="0.00" departPos="293.52" color="red">
        <route edges="448"/>
        <stop lane="448_0" endPos="293.52" until="659.00" parking="1"/>
    </vehicle>
    <vehicle id="1034" type="RSU" depart="0.00" departPos="328.83" color="red">
        <route edges="576"/>
        <stop lane="576_0" endPos="328.83" until="659.00" parking="1"/>
    </vehicle>
    <vehicle id="1035" type="RSU" depart="0.00" departPos="32.73" color="red">
        <route edges="391"/>
        <stop lane="391_0" endPos="32.73" until="659.00" parking="1"/>
    </vehicle>
    <vehicle id="1036" type="RSU" depart="0.00" departPos="264.51" color="red">
        <route edges="62"/>
        <stop lane="62_0" endPos="264.51" until="659.00" parking="1"/>
    </vehicle>
    <vehicle id="1037" type="RSU" depart="0.00" departPos="46.76" color="red">
        <route edges="545"/>
        <stop lane="545_0" endPos="46.76" until="659.00" parking="1"/>
    </vehicle>
    <vehicle id="1038" type="RSU" depart="0.00" departPos="63.38" color="red">
        <route edges="649#5"/>
        <stop lane="649#5_0" endPos="63.38" until="659.00" parking="1"/>
    </vehicle>
    <vehicle id="1039" type="RSU" depart="0.00" departPos="78.18" color="red">
        <route edges="575#0"/>
        <stop lane="575#0_0" endPos="78.18" until="659.00" parking="1"/>
    </vehicle>
    <vehicle id="1040" type="RSU" depart="0.00" departPos="148.40" color="red">
        <route edges="444"/>
        <stop lane="444_0" endPos="148.40" until="659.00" parking="1"/>
    </vehicle>
    <vehicle id="1041" type="RSU" depart="0.00" departPos="33.82" color="red">
        <route edges="557#2"/>
        <stop lane="557#2_0" endPos="33.82" until="659.00" parking="1"/>
    </vehicle>
    <vehicle id="1042" type="RSU" depart="0.00" departPos="68.04" color="red">
        <route edges="602"/>
        <stop lane="602_0" endPos="68.04" until="659.00" parking="1"/>
    </vehicle>
    <vehicle id="1043" type="RSU" depart="0.00" departPos="122.91" color="red">
        <route edges="426#1"/>
        <stop lane="426#1_0" endPos="122.91" until="659.00" parking="1"/>
    </vehicle>
    <vehicle id="1044" type="RSU" depart="0.00" departPos="193.56" color="red">
        <route edges="472#0"/>
        <stop lane="472#0_0" endPos="193.56" until="659.00" parking="1"/>
    </vehicle>
    <vehicle id="1045" type="RSU" depart="0.00" departPos="269.31" color="red">
        <route edges="84"/>
        <stop lane="84_0" endPos="269.31" until="659.00" parking="1"/>
    </vehicle>
    <vehicle id="1046" type="RSU" depart="0.00" departPos="86.29" color="red">
        <route edges="385#0"/>
        <stop lane="385#0_0" endPos="86.29" until="659.00" parking="1"/>
    </vehicle>
    <vehicle id="1047" type="RSU" depart="0.00" departPos="254.44" color="red">
        <route edges="502#1"/>
        <stop lane="502#1_0" endPos="254.44" until="659.00" parking="1"/>
    </vehicle>
    <vehicle id="1048" type="RSU" depart="0.00" departPos="205.78" color="red">
        <route edges="466#1"/>
        <stop lane="466#1_0" endPos="205.78" until="659.00" parking="1"/>
    </vehicle>
    <vehicle id="1049" type="RSU" depart="0.00" departPos="311.57" color="red">
        <route edges="321#0"/>
        <stop lane="321#0_0" endPos="311.57" until="659.00" parking="1"/>
    </vehicle>
    <vehicle id="1050" type="RSU" depart="0.00" departPos="336.47" color="red">
        <route edges="379"/>
        <stop lane="379_0" endPos="336.47" until="659.00" parking="1"/>
    </vehicle>
    <vehicle id="1051" type="RSU" depart="0.00" departPos="33.10" color="red">
        <route edges="558#0"/>
        <stop lane="558#0_0" endPos="33.10" until="659.00" parking="1"/>
    </vehicle>
    <vehicle id="1052" type="RSU" depart="0.00" departPos="247.55" color="red">
        <route edges="464"/>
        <stop lane="464_0" endPos="247.55" until="659.00" parking="1"/>
    </vehicle>
    <vehicle id="1053" type="RSU" depart="0.00" departPos="16.86" color="red">
        <route edges="594#0"/>
        <stop lane="594#0_0" endPos="16.86" until="659.00" parking="1"/>
    </vehicle>
    <vehicle id="1054" type="RSU" depart="0.00" departPos="14.42" color="red">
        <route edges="467#1"/>
        <stop lane="467#1_0" endPos="14.42" until="659.00" parking="1"/>
    </vehicle>
    <vehicle id="1055" type="RSU" depart="0.00" departPos="36.88" color="red">
        <route edges="547"/>
        <stop lane="547_0" endPos="36.88" until="659.00" parking="1"/>
    </vehicle>
    <vehicle id="1056" type="RSU" depart="0.00" departPos="89.36" color="red">
        <route edges="68#0"/>
        <stop lane="68#0_0" endPos="89.36" until="659.00" parking="1"/>
    </vehicle>
    <vehicle id="1057" type="RSU" depart="0.00" departPos="62.52" color="red">
        <route edges="490#1"/>
        <stop lane="490#1_0" endPos="62.52" until="659.00" parking="1"/>
    </vehicle>
    <vehicle id="1058" type="RSU" depart="0.00" departPos="481.13" color="red">
        <route edges="316#0"/>
        <stop lane="316#0_0" endPos="481.13" until="659.00" parking="1"/>
    </vehicle>
    <vehicle id="1059" type="RSU" depart="0.00" departPos="87.89" color="red">
        <route edges="527"/>
        <stop lane="527_0" endPos="87.89" until="659.00" parking="1"/>
    </vehicle>
    <vehicle id="1060" type="RSU" depart="0.00" departPos="198.61" color="red">
        <route edges="628#1"/>
        <stop lane="628#1_0" endPos="198.61" until="659.00" parking="1"/>
    </vehicle>
    <vehicle id="1061" type="RSU" depart="0.00" departPos="27.91" color="red">
        <route edges="396"/>
        <stop lane="396_0" endPos="27.91" until="659.00" parking="1"/>
    </vehicle>
    <vehicle id="1062" type="RSU" depart="0.00" departPos="58.68" color="red">
        <route edges="397#2"/>
        <stop lane="397#2_0" endPos="58.68" until="659.00" parking="1"/>
    </vehicle>
    <vehicle id="1063" type="RSU" depart="0.00" departPos="247.66" color="red">
        <route edges="557#0"/>
        <stop lane="557#0_0" endPos="247.66" until="659.00" parking="1"/>
    </vehicle>
    <vehicle id="1064" type="RSU" depart="0.00" departPos="50.37" color="red">
        <route edges="30#0"/>
        <stop lane="30#0_0" endPos="50.37" until="659.00" parking="1"/>
    </vehicle>
    <vehicle id="1065" type="RSU" depart="0.00" departPos="38.48" color="red">
        <route edges="649#1"/>
        <stop lane="649#1_0" endPos="38.48" until="659.00" parking="1"/>
    </vehicle>
    <vehicle id="1066" type="RSU" depart="0.00" departPos="165.23" color="red">
        <route edges="631"/>
        <stop lane="631_0" endPos="165.23" until="659.00" parking="1"/>
    </vehicle>
    <vehicle id="1067" type="RSU" depart="0.00" departPos="121.65" color="red">
        <route edges="477"/>
        <stop lane="477_0" endPos="121.65" until="659.00" parking="1"/>
    </vehicle>
    <vehicle id="1068" type="RSU" depart="0.00" departPos="50.24" color="red">
        <route edges="462"/>
        <stop lane="462_0" endPos="50.24" until="659.00" parking="1"/>
    </vehicle>
    <vehicle id="1069" type="RSU" depart="0.00" departPos="73.95" color="red">
        <route edges="669#2"/>
        <stop lane="669#2_0" endPos="73.95" until="659.00" parking="1"/>
    </vehicle>
    <vehicle id="1070" type="RSU" depart="0.00" departPos="262.90" color="red">
        <route edges="479"/>
        <stop lane="479_0" endPos="262.90" until="659.00" parking="1"/>
    </vehicle>
    <vehicle id="1071" type="RSU" depart="0.00" departPos="638.87" color="red">
        <route edges="634#0"/>
        <stop lane="634#0_0" endPos="638.87" until="659.00" parking="1"/>
    </vehicle>
    <vehicle id="1072" type="RSU" depart="0.00" departPos="485.27" color="red">
        <route edges="425#2"/>
        <stop lane="425#2_0" endPos="485.27" until="659.00" parking="1"/>
    </vehicle>
    <vehicle id="1073" type="RSU" depart="0.00" departPos="169.84" color="red">
        <route edges="19"/>
        <stop lane="19_0" endPos="169.84" until="659.00" parking="1"/>
    </vehicle>
    <vehicle id="1074" type="RSU" depart="0.00" departPos="299.44" color="red">
        <route edges="446#1"/>
        <stop lane="446#1_0" endPos="299.44" until="659.00" parking="1"/>
    </vehicle>
    <vehicle id="1075" type="RSU" depart="0.00" departPos="119.82" color="red">
        <route edges="529"/>
        <stop lane="529_0" endPos="119.82" until="659.00" parking="1"/>
    </vehicle>
    <vehicle id="1076" type="RSU" depart="0.00" departPos="895.73" color="red">
        <route edges="612#1"/>
        <stop lane="612#1_0" endPos="895.73" until="659.00" parking="1"/>
    </vehicle>
    <vehicle id="1077" type="RSU" depart="0.00" departPos="150.91" color="red">
        <route edges="65#1"/>
        <stop lane="65#1_0" endPos="150.91" until="659.00" parking="1"/>
    </vehicle>
    <vehicle id="1078" type="RSU" depart="0.00" departPos="85.29" color="red">
        <route edges="600#1"/>
        <stop lane="600#1_0" endPos="85.29" until="659.00" parking="1"/>
    </vehicle>
    <vehicle id="1079" type="RSU" depart="0.00" departPos="199.87" color="red">
        <route edges="70#1"/>
        <stop lane="70#1_0" endPos="199.87" until="659.00" parking="1"/>
    </vehicle>
    <vehicle id="1080" type="RSU" depart="0.00" departPos="67.70" color="red">
        <route edges="415"/>
        <stop lane="415_0" endPos="67.70" until="659.00" parking="1"/>
    </vehicle>
    <vehicle id="1081" type="RSU" depart="0.00" departPos="163.09" color="red">
        <route edges="634#1"/>
        <stop lane="634#1_0" endPos="163.09" until="659.00" parking="1"/>
    </vehicle>
    <vehicle id="1082" type="RSU" depart="0.00" departPos="62.32" color="red">
        <route edges="371"/>
        <stop lane="371_0" endPos="62.32" until="659.00" parking="1"/>
    </vehicle>
    <vehicle id="1083" type="RSU" depart="0.00" departPos="793.91" color="red">
        <route edges="38"/>
        <stop lane="38_0" endPos="793.91" until="659.00" parking="1"/>
    </vehicle>
    <vehicle id="1084" type="RSU" depart="0.00" departPos="74.71" color="red">
        <route edges="521"/>
        <stop lane="521_0" endPos="74.71" until="659.00" parking="1"/>
    </vehicle>
    <vehicle id="1085" type="RSU" depart="0.00" departPos="166.26" color="red">
        <route edges="508#1"/>
        <stop lane="508#1_0" endPos="166.26" until="659.00" parking="1"/>
    </vehicle>
    <vehicle id="1086" type="RSU" depart="0.00" departPos="160.55" color="red">
        <route edges="480"/>
        <stop lane="480_0" endPos="160.55" until="659.00" parking="1"/>
    </vehicle>
    <vehicle id="1087" type="RSU" depart="0.00" departPos="530.07" color="red">
        <route edges="-22#1"/>
        <stop lane="-22#1_0" endPos="530.07" until="659.00" parking="1"/>
    </vehicle>
    <vehicle id="1088" type="RSU" depart="0.00" departPos="81.57" color="red">
        <route edges="615"/>
        <stop lane="615_0" endPos="81.57" until="659.00" parking="1"/>
    </vehicle>
    <vehicle id="1089" type="RSU" depart="0.00" departPos="41.49" color="red">
        <route edges="607"/>
        <stop lane="607_0" endPos="41.49" until="659.00" parking="1"/>
    </vehicle>
    <vehicle id="1090" type="RSU" depart="0.00" departPos="512.49" color="red">
        <route edges="37"/>
        <stop lane="37_0" endPos="512.49" until="659.00" parking="1"/>
    </vehicle>
    <vehicle id="1091" type="RSU" depart="0.00" departPos="49.35" color="red">
        <route edges="392"/>
        <stop lane="392_0" endPos="49.35" until="659.00" parking="1"/>
    </vehicle>
    <vehicle id="1092" type="RSU" depart="0.00" departPos="91.10" color="red">
        <route edges="642"/>
        <stop lane="642_0" endPos="91.10" until="659.00" parking="1"/>
    </vehicle>
    <vehicle id="1093" type="RSU" depart="0.00" departPos="324.96" color="red">
        <route edges="503"/>
        <stop lane="503_0" endPos="324.96" until="659.00" parking="1"/>
    </vehicle>
    <vehicle id="1094" type="RSU" depart="0.00" departPos="258.71" color="red">
        <route edges="4"/>
        <stop lane="4_0" endPos="258.71" until="659.00" parking="1"/>
    </vehicle>
    <vehicle id="1095" type="RSU" depart="0.00" departPos="21.29" color="red">
        <route edges="617"/>
        <stop lane="617_0" endPos="21.29" until="659.00" parking="1"/>
    </vehicle>
    <vehicle id="1096" type="RSU" depart="0.00" departPos="149.72" color="red">
        <route edges="484"/>
        <stop lane="484_0" endPos="149.72" until="659.00" parking="1"/>
    </vehicle>
    <vehicle id="1097" type="RSU" depart="0.00" departPos="223.36" color="red">
        <route edges="30#2"/>
        <stop lane="30#2_0" endPos="223.36" until="659.00" parking="1"/>
    </vehicle>
    <vehicle id="1098" type="RSU" depart="0.00" departPos="219.44" color="red">
        <route edges="646"/>
        <stop lane="646_0" endPos="219.44" until="659.00" parking="1"/>
    </vehicle>
    <vehicle id="1099" type="RSU" depart="0.00" departPos="256.85" color="red">
        <route edges="353#1"/>
        <stop lane="353#1_0" endPos="256.85" until="659.00" parking="1"/>
    </vehicle>
    <vehicle id="1100" type="RSU" depart="0.00" departPos="37.07" color="red">
        <route edges="410#0"/>
        <stop lane="410#0_0" endPos="37.07" until="659.00" parking="1"/>
    </vehicle>
    <vehicle id="1101" type="RSU" depart="0.00" departPos="310.02" color="red">
        <route edges="429#0"/>
        <stop lane="429#0_0" endPos="310.02" until="659.00" parking="1"/>
    </vehicle>
    <vehicle id="1102" type="RSU" depart="0.00" departPos="127.12" color="red">
        <route edges="307"/>
        <stop lane="307_0" endPos="127.12" until="659.00" parking="1"/>
    </vehicle>
    <vehicle id="1103" type="RSU" depart="0.00" departPos="116.42" color="red">
        <route edges="299#0"/>
        <stop lane="299#0_0" endPos="116.42" until="659.00" parking="1"/>
    </vehicle>
    <vehicle id="1104" type="RSU" depart="0.00" departPos="1007.39" color="red">
        <route edges="664#1"/>
        <stop lane="664#1_0" endPos="1007.39" until="659.00" parking="1"/>
    </vehicle>
    <vehicle id="1105" type="RSU" depart="0.00" departPos="234.97" color="red">
        <route edges="532#1"/>
        <stop lane="532#1_0" endPos="234.97" until="659.00" parking="1"/>
    </vehicle>
    <vehicle id="1106" type="RSU" depart="0.00" departPos="65.30" color="red">
        <route edges="520"/>
        <stop lane="520_0" endPos="65.30" until="659.00" parking="1"/>
    </vehicle>
    <vehicle id="1107" type="RSU" depart="0.00" departPos="42.90" color="red">
        <route edges="18"/>
        <stop lane="18_0" endPos="42.90" until="659.00" parking="1"/>
    </vehicle>
    <vehicle id="1108" type="RSU" depart="0.00" departPos="130.27" color="red">
        <route edges="390"/>
        <stop lane="390_0" endPos="130.27" until="659.00" parking="1"/>
    </vehicle>
    <vehicle id="1109" type="RSU" depart="0.00" departPos="284.17" color="red">
        <route edges="-296"/>
        <stop lane="-296_0" endPos="284.17" until="659.00" parking="1"/>
    </vehicle>
    <vehicle id="1110" type="RSU" depart="0.00" departPos="185.86" color="red">
        <route edges="557#3"/>
        <stop lane="557#3_0" endPos="185.86" until="659.00" parking="1"/>
    </vehicle>
    <vehicle id="1111" type="RSU" depart="0.00" departPos="80.01" color="red">
        <route edges="644"/>
        <stop lane="644_0" endPos="80.01" until="659.00" parking="1"/>
    </vehicle>
    <vehicle id="1112" type="RSU" depart="0.00" departPos="155.87" color="red">
        <route edges="426#0"/>
        <stop lane="426#0_0" endPos="155.87" until="659.00" parking="1"/>
    </vehicle>
    <vehicle id="1113" type="RSU" depart="0.00" departPos="296.54" color="red">
        <route edges="468#1"/>
        <stop lane="468#1_0" endPos="296.54" until="659.00" parking="1"/>
    </vehicle>
    <vehicle id="1114" type="RSU" depart="0.00" departPos="133.98" color="red">
        <route edges="403#0"/>
        <stop lane="403#0_0" endPos="133.98" until="659.00" parking="1"/>
    </vehicle>
    <vehicle id="1115" type="RSU" depart="0.00" departPos="198.62" color="red">
        <route edges="106#1"/>
        <stop lane="106#1_0" endPos="198.62" until="659.00" parking="1"/>
    </vehicle>
    <vehicle id="1116" type="RSU" depart="0.00" departPos="25.70" color="red">
        <route edges="581"/>
        <stop lane="581_0" endPos="25.70" until="659.00" parking="1"/>
    </vehicle>
    <vehicle id="1117" type="RSU" depart="0.00" departPos="122.88" color="red">
        <route edges="443"/>
        <stop lane="443_0" endPos="122.88" until="659.00" parking="1"/>
    </vehicle>
    <vehicle id="1118" type="RSU" depart="0.00" departPos="56.79" color="red">
        <route edges="435"/>
        <stop lane="435_0" endPos="56.79" until="659.00" parking="1"/>
    </vehicle>
    <vehicle id="1119" type="RSU" depart="0.00" departPos="88.35" color="red">
        <route edges="470"/>
        <stop lane="470_0" endPos="88.35" until="659.00" parking="1"/>
    </vehicle>
    <vehicle id="1120" type="RSU" depart="0.00" departPos="35.76" color="red">
        <route edges="530#1"/>
        <stop lane="530#1_0" endPos="35.76" until="659.00" parking="1"/>
    </vehicle>
    <vehicle id="1121" type="RSU" depart="0.00" departPos="311.57" color="red">
        <route edges="-321#0"/>
        <stop lane="-321#0_0" endPos="311.57" until="659.00" parking="1"/>
    </vehicle>
    <vehicle id="1122" type="RSU" depart="0.00" departPos="285.16" color="red">
        <route edges="445"/>
        <stop lane="445_0" endPos="285.16" until="659.00" parking="1"/>
    </vehicle>
    <vehicle id="1123" type="RSU" depart="0.00" departPos="67.33" color="red">
        <route edges="386#1"/>
        <stop lane="386#1_0" endPos="67.33" until="659.00" parking="1"/>
    </vehicle>
    <vehicle id="1124" type="RSU" depart="0.00" departPos="186.18" color="red">
        <route edges="437"/>
        <stop lane="437_0" endPos="186.18" until="659.00" parking="1"/>
    </vehicle>
    <vehicle id="1125" type="RSU" depart="0.00" departPos="32.01" color="red">
        <route edges="671"/>
        <stop lane="671_0" endPos="32.01" until="659.00" parking="1"/>
    </vehicle>
    <vehicle id="1126" type="RSU" depart="0.00" departPos="209.32" color="red">
        <route edges="85"/>
        <stop lane="85_0" endPos="209.32" until="659.00" parking="1"/>
    </vehicle>
    <vehicle id="1127" type="RSU" depart="0.00" departPos="292.51" color="red">
        <route edges="447#0"/>
        <stop lane="447#0_0" endPos="292.51" until="659.00" parking="1"/>
    </vehicle>
    <vehicle id="1128" type="RSU" depart="0.00" departPos="128.14" color="red">
        <route edges="516#1"/>
        <stop lane="516#1_0" endPos="128.14" until="659.00" parking="1"/>
    </vehicle>
    <vehicle id="1129" type="RSU" depart="0.00" departPos="276.71" color="red">
        <route edges="-10"/>
        <stop lane="-10_0" endPos="276.71" until="659.00" parking="1"/>
    </vehicle>
    <vehicle id="1130" type="RSU" depart="0.00" departPos="202.32" color="red">
        <route edges="628#0"/>
        <stop lane="628#0_0" endPos="202.32" until="659.00" parking="1"/>
    </vehicle>
    <vehicle id="1131" type="RSU" depart="0.00" departPos="24547.52" color="red">
        <route edges="608#1"/>
        <stop lane="608#1_0" endPos="24547.52" until="659.00" parking="1"/>
    </vehicle>
    <vehicle id="1132" type="RSU" depart="0.00" departPos="506.58" color="red">
        <route edges="315"/>
        <stop lane="315_0" endPos="506.58" until="659.00" parking="1"/>
    </vehicle>
    <vehicle id="1133" type="RSU" depart="0.00" departPos="33.73" color="red">
        <route edges="585"/>
        <stop lane="585_0" endPos="33.73" until="659.00" parking="1"/>
    </vehicle>
    <vehicle id="1134" type="RSU" depart="0.00" departPos="138.30" color="red">
        <route edges="586#2"/>
        <stop lane="586#2_0" endPos="138.30" until="659.00" parking="1"/>
    </vehicle>
    <vehicle id="1135" type="RSU" depart="0.00" departPos="371.58" color="red">
        <route edges="483"/>
        <stop lane="483_0" endPos="371.58" until="659.00" parking="1"/>
    </vehicle>
    <vehicle id="1136" type="RSU" depart="0.00" departPos="158.10" color="red">
        <route edges="13"/>
        <stop lane="13_0" endPos="158.10" until="659.00" parking="1"/>
    </vehicle>
    <vehicle id="1137" type="RSU" depart="0.00" departPos="47.33" color="red">
        <route edges="557#1"/>
        <stop lane="557#1_0" endPos="47.33" until="659.00" parking="1"/>
    </vehicle>
    <vehicle id="1138" type="RSU" depart="0.00" departPos="133.91" color="red">
        <route edges="31"/>
        <stop lane="31_0" endPos="133.91" until="659.00" parking="1"/>
    </vehicle>
    <vehicle id="1139" type="RSU" depart="0.00" departPos="177.14" color="red">
        <route edges="438#1"/>
        <stop lane="438#1_0" endPos="177.14" until="659.00" parking="1"/>
    </vehicle>
    <vehicle id="1140" type="RSU" depart="0.00" departPos="14.40" color="red">
        <route edges="589"/>
        <stop lane="589_0" endPos="14.40" until="659.00" parking="1"/>
    </vehicle>
    <vehicle id="1141" type="RSU" depart="0.00" departPos="87.77" color="red">
        <route edges="-65#0"/>
        <stop lane="-65#0_0" endPos="87.77" until="659.00" parking="1"/>
    </vehicle>
    <vehicle id="1142" type="RSU" depart="0.00" departPos="136.75" color="red">
        <route edges="308"/>
        <stop lane="308_0" endPos="136.75" until="659.00" parking="1"/>
    </vehicle>
    <vehicle id="1143" type="RSU" depart="0.00" departPos="773.37" color="red">
        <route edges="465"/>
        <stop lane="465_0" endPos="773.37" until="659.00" parking="1"/>
    </vehicle>
    <vehicle id="1144" type="RSU" depart="0.00" departPos="38.01" color="red">
        <route edges="461"/>
        <stop lane="461_0" endPos="38.01" until="659.00" parking="1"/>
    </vehicle>
    <vehicle id="1145" type="RSU" depart="0.00" departPos="127.89" color="red">
        <route edges="414"/>
        <stop lane="414_0" endPos="127.89" until="659.00" parking="1"/>
    </vehicle>
    <vehicle id="1146" type="RSU" depart="0.00" departPos="29.96" color="red">
        <route edges="15#1"/>
        <stop lane="15#1_0" endPos="29.96" until="659.00" parking="1"/>
    </vehicle>
    <vehicle id="1147" type="RSU" depart="0.00" departPos="24.36" color="red">
        <route edges="412"/>
        <stop lane="412_0" endPos="24.36" until="659.00" parking="1"/>
    </vehicle>