<?xml version="1.0"?>
<!-- generated on 2018-05-11 00:05:36.613000 by $Id: randomTrips.py 18756 2015-08-31 19:16:33Z behrisch $
  options: -n input_net.net.xml -e 120 -p 0.15 <doubleminus>trip-attributes=departLane="best"
-->
<trips>
    <trip id="0" depart="0.00" from="69#1" to="505#0" departLane="best"/>
    <trip id="1" depart="0.15" from="466#1" to="497" departLane="best"/>
    <trip id="2" depart="0.30" from="299#1" to="-550#1" departLane="best"/>
    <trip id="3" depart="0.45" from="649#5" to="408#0" departLane="best"/>
    <trip id="4" depart="0.60" from="420" to="482" departLane="best"/>
    <trip id="5" depart="0.75" from="674" to="-87#0" departLane="best"/>
    <trip id="6" depart="0.90" from="661#2" to="650" departLane="best"/>
    <trip id="7" depart="1.05" from="578" to="96" departLane="best"/>
    <trip id="8" depart="1.20" from="106#1" to="604" departLane="best"/>
    <trip id="9" depart="1.35" from="528" to="57" departLane="best"/>
    <trip id="10" depart="1.50" from="22#0" to="398#2" departLane="best"/>
    <trip id="11" depart="1.65" from="355#1" to="6" departLane="best"/>
    <trip id="12" depart="1.80" from="382" to="507" departLane="best"/>
    <trip id="13" depart="1.95" from="-22#0" to="7" departLane="best"/>
    <trip id="14" depart="2.10" from="527" to="404#0" departLane="best"/>
    <trip id="15" depart="2.25" from="75" to="-87#1" departLane="best"/>
    <trip id="16" depart="2.40" from="15#1" to="403#1" departLane="best"/>
    <trip id="17" depart="2.55" from="12" to="369" departLane="best"/>
    <trip id="18" depart="2.70" from="495" to="-341" departLane="best"/>
    <trip id="19" depart="2.85" from="591#1" to="608#1" departLane="best"/>
    <trip id="20" depart="3.00" from="35" to="69#1" departLane="best"/>
    <trip id="21" depart="3.15" from="626" to="443" departLane="best"/>
    <trip id="22" depart="3.30" from="6" to="321#1" departLane="best"/>
    <trip id="23" depart="3.45" from="66" to="479" departLane="best"/>
    <trip id="24" depart="3.60" from="-511" to="-87#0" departLane="best"/>
    <trip id="25" depart="3.75" from="615" to="98" departLane="best"/>
    <trip id="26" depart="3.90" from="416" to="574" departLane="best"/>
    <trip id="27" depart="4.05" from="665#0" to="452" departLane="best"/>
    <trip id="28" depart="4.20" from="86" to="406#0" departLane="best"/>
    <trip id="29" depart="4.35" from="362" to="23#1" departLane="best"/>
    <trip id="30" depart="4.50" from="13" to="590" departLane="best"/>
    <trip id="31" depart="4.65" from="14" to="413#1" departLane="best"/>
    <trip id="32" depart="4.80" from="600#1" to="85" departLane="best"/>
    <trip id="33" depart="4.95" from="610" to="72" departLane="best"/>
    <trip id="34" depart="5.10" from="488#1" to="456" departLane="best"/>
    <trip id="35" depart="5.25" from="485#3" to="-87#0" departLane="best"/>
    <trip id="36" depart="5.40" from="557#1" to="506#1" departLane="best"/>
    <trip id="37" depart="5.55" from="660" to="642" departLane="best"/>
    <trip id="38" depart="5.70" from="521" to="366" departLane="best"/>
    <trip id="39" depart="5.85" from="553#0" to="42" departLane="best"/>
    <trip id="40" depart="6.00" from="661#2" to="24#0" departLane="best"/>
    <trip id="41" depart="6.15" from="495" to="-546" departLane="best"/>
    <trip id="42" depart="6.30" from="542#1" to="542#2" departLane="best"/>
    <trip id="43" depart="6.45" from="505#1" to="661#1" departLane="best"/>
    <trip id="44" depart="6.60" from="596#1" to="6" departLane="best"/>
    <trip id="45" depart="6.75" from="611" to="595" departLane="best"/>
    <trip id="46" depart="6.90" from="542#1" to="-8#0" departLane="best"/>
    <trip id="47" depart="7.05" from="446#0" to="40" departLane="best"/>
    <trip id="48" depart="7.20" from="463#2" to="496#2" departLane="best"/>
    <trip id="49" depart="7.35" from="557#0" to="405#0" departLane="best"/>
    <trip id="50" depart="7.50" from="397#0" to="-65#1" departLane="best"/>
    <trip id="51" depart="7.65" from="366" to="416" departLane="best"/>
    <trip id="52" depart="7.80" from="623#2" to="388#1" departLane="best"/>
    <trip id="53" depart="7.95" from="564" to="356#1" departLane="best"/>
    <trip id="54" depart="8.10" from="502#2" to="411" departLane="best"/>
    <trip id="55" depart="8.25" from="69#1" to="-96" departLane="best"/>
    <trip id="56" depart="8.40" from="500" to="423" departLane="best"/>
    <trip id="57" depart="8.55" from="478#0" to="31" departLane="best"/>
    <trip id="58" depart="8.70" from="566#0" to="455#1" departLane="best"/>
    <trip id="59" depart="8.85" from="673" to="645" departLane="best"/>
    <trip id="60" depart="9.00" from="647" to="556" departLane="best"/>
    <trip id="61" depart="9.15" from="53" to="352" departLane="best"/>
    <trip id="62" depart="9.30" from="579" to="1#1" departLane="best"/>
    <trip id="63" depart="9.45" from="35" to="92" departLane="best"/>
    <trip id="64" depart="9.60" from="105#1" to="526#1" departLane="best"/>
    <trip id="65" depart="9.75" from="471#1" to="555#1" departLane="best"/>
    <trip id="66" depart="9.90" from="14" to="354#2" departLane="best"/>
    <trip id="67" depart="10.05" from="332#1" to="591#0" departLane="best"/>
    <trip id="68" depart="10.20" from="395" to="366" departLane="best"/>
    <trip id="69" depart="10.35" from="2#0" to="485#3" departLane="best"/>
    <trip id="70" depart="10.50" from="623#0" to="670#2" departLane="best"/>
    <trip id="71" depart="10.65" from="-550#2" to="652" departLane="best"/>
    <trip id="72" depart="10.80" from="105#1" to="547" departLane="best"/>
    <trip id="73" depart="10.95" from="397#3" to="42" departLane="best"/>
    <trip id="74" depart="11.10" from="66" to="508#0" departLane="best"/>
    <trip id="75" depart="11.25" from="383" to="666#0" departLane="best"/>
    <trip id="76" depart="11.40" from="370" to="-634#1" departLane="best"/>
    <trip id="77" depart="11.55" from="321#0" to="553#1" departLane="best"/>
    <trip id="78" depart="11.70" from="478#2" to="532#0" departLane="best"/>
    <trip id="79" depart="11.85" from="105#1" to="575#0" departLane="best"/>
    <trip id="80" depart="12.00" from="500" to="461" departLane="best"/>
    <trip id="81" depart="12.15" from="71" to="23#1" departLane="best"/>
    <trip id="82" depart="12.30" from="662#0" to="466#0" departLane="best"/>
    <trip id="83" depart="12.45" from="-35" to="474" departLane="best"/>
    <trip id="84" depart="12.60" from="-105#0" to="424" departLane="best"/>
    <trip id="85" depart="12.75" from="84" to="381" departLane="best"/>
    <trip id="86" depart="12.90" from="375" to="437" departLane="best"/>
    <trip id="87" depart="13.05" from="488#2" to="666#1" departLane="best"/>
    <trip id="88" depart="13.20" from="388#0" to="548" departLane="best"/>
    <trip id="89" depart="13.35" from="40" to="402" departLane="best"/>
    <trip id="90" depart="13.50" from="546" to="-511" departLane="best"/>
    <trip id="91" depart="13.65" from="505#0" to="540#0" departLane="best"/>
    <trip id="92" depart="13.80" from="63" to="471#1" departLane="best"/>
    <trip id="93" depart="13.95" from="56#0" to="669#2" departLane="best"/>
    <trip id="94" depart="14.10" from="353#0" to="540#1" departLane="best"/>
    <trip id="95" depart="14.25" from="622" to="68#2" departLane="best"/>
    <trip id="96" depart="14.40" from="576" to="438#0" departLane="best"/>
    <trip id="97" depart="14.55" from="526#1" to="539" departLane="best"/>
    <trip id="98" depart="14.70" from="10" to="604" departLane="best"/>
    <trip id="99" depart="14.85" from="-98" to="29" departLane="best"/>
    <trip id="100" depart="15.00" from="467#1" to="657" departLane="best"/>
    <trip id="101" depart="15.15" from="393" to="555#4" departLane="best"/>
    <trip id="102" depart="15.30" from="487" to="49" departLane="best"/>
    <trip id="103" depart="15.45" from="455#2" to="405#2" departLane="best"/>
    <trip id="104" depart="15.60" from="594#2" to="469#2" departLane="best"/>
    <trip id="105" depart="15.75" from="523" to="459#0" departLane="best"/>
    <trip id="106" depart="15.90" from="403#1" to="629" departLane="best"/>
    <trip id="107" depart="16.05" from="-388#1" to="634#2" departLane="best"/>
    <trip id="108" depart="16.20" from="637#1" to="401" departLane="best"/>
    <trip id="109" depart="16.35" from="432#0" to="509" departLane="best"/>
    <trip id="110" depart="16.50" from="425#0" to="494#0" departLane="best"/>
    <trip id="111" depart="16.65" from="605#1" to="68#1" departLane="best"/>
    <trip id="112" depart="16.80" from="457#0" to="425#0" departLane="best"/>
    <trip id="113" depart="16.95" from="86" to="350#1" departLane="best"/>
    <trip id="114" depart="17.10" from="423" to="515" departLane="best"/>
    <trip id="115" depart="17.25" from="31" to="23#0" departLane="best"/>
    <trip id="116" depart="17.40" from="487" to="392" departLane="best"/>
    <trip id="117" depart="17.55" from="24#1" to="356#1" departLane="best"/>
    <trip id="118" depart="17.70" from="551#1" to="669#0" departLane="best"/>
    <trip id="119" depart="17.85" from="414" to="663" departLane="best"/>
    <trip id="120" depart="18.00" from="571#2" to="450" departLane="best"/>
    <trip id="121" depart="18.15" from="469#0" to="385#0" departLane="best"/>
    <trip id="122" depart="18.30" from="589" to="23#1" departLane="best"/>
    <trip id="123" depart="18.45" from="538#1" to="575#0" departLane="best"/>
    <trip id="124" depart="18.60" from="391" to="496#2" departLane="best"/>
    <trip id="125" depart="18.75" from="4" to="10" departLane="best"/>
    <trip id="126" depart="18.90" from="603" to="648" departLane="best"/>
    <trip id="127" depart="19.05" from="649#7" to="401" departLane="best"/>
    <trip id="128" depart="19.20" from="546" to="398#0" departLane="best"/>
    <trip id="129" depart="19.35" from="606" to="85" departLane="best"/>
    <trip id="130" depart="19.50" from="-87#1" to="650" departLane="best"/>
    <trip id="131" depart="19.65" from="-34" to="420" departLane="best"/>
    <trip id="132" depart="19.80" from="571#2" to="403#1" departLane="best"/>
    <trip id="133" depart="19.95" from="-302" to="70#0" departLane="best"/>
    <trip id="134" depart="20.10" from="649#3" to="434" departLane="best"/>
    <trip id="135" depart="20.25" from="-96" to="-22#1" departLane="best"/>
    <trip id="136" depart="20.40" from="106#0" to="618" departLane="best"/>
    <trip id="137" depart="20.55" from="500" to="10" departLane="best"/>
    <trip id="138" depart="20.70" from="522" to="-8#1" departLane="best"/>
    <trip id="139" depart="20.85" from="429#0" to="382" departLane="best"/>
    <trip id="140" depart="21.00" from="-490#1" to="10" departLane="best"/>
    <trip id="141" depart="21.15" from="84" to="384" departLane="best"/>
    <trip id="142" depart="21.30" from="439" to="392" departLane="best"/>
    <trip id="143" depart="21.45" from="634#1" to="544#2" departLane="best"/>
    <trip id="144" depart="21.60" from="393" to="451" departLane="best"/>
    <trip id="145" depart="21.75" from="332#1" to="457#1" departLane="best"/>
    <trip id="146" depart="21.90" from="18" to="485#4" departLane="best"/>
    <trip id="147" depart="22.05" from="557#0" to="350#2" departLane="best"/>
    <trip id="148" depart="22.20" from="609" to="670#3" departLane="best"/>
    <trip id="149" depart="22.35" from="404#0" to="426#1" departLane="best"/>
    <trip id="150" depart="22.50" from="-65#0" to="555#4" departLane="best"/>
    <trip id="151" depart="22.65" from="-9" to="628#0" departLane="best"/>
    <trip id="152" depart="22.80" from="444" to="-299#0" departLane="best"/>
    <trip id="153" depart="22.95" from="526#3" to="75" departLane="best"/>
    <trip id="154" depart="23.10" from="438#1" to="613#0" departLane="best"/>
    <trip id="155" depart="23.25" from="563" to="408#1" departLane="best"/>
    <trip id="156" depart="23.40" from="30#1" to="496#2" departLane="best"/>
    <trip id="157" depart="23.55" from="575#1" to="469#1" departLane="best"/>
    <trip id="158" depart="23.70" from="541" to="388#3" departLane="best"/>
    <trip id="159" depart="23.85" from="498#0" to="569" departLane="best"/>
    <trip id="160" depart="24.00" from="458" to="565" departLane="best"/>
    <trip id="161" depart="24.15" from="468#1" to="57" departLane="best"/>
    <trip id="162" depart="24.30" from="637#1" to="550#2" departLane="best"/>
    <trip id="163" depart="24.45" from="361" to="486" departLane="best"/>
    <trip id="164" depart="24.60" from="-98" to="675" departLane="best"/>
    <trip id="165" depart="24.75" from="-511" to="575#1" departLane="best"/>
    <trip id="166" depart="24.90" from="350#2" to="59" departLane="best"/>
    <trip id="167" depart="25.05" from="65#1" to="624" departLane="best"/>
    <trip id="168" depart="25.20" from="-65#0" to="-550#1" departLane="best"/>
    <trip id="169" depart="25.35" from="600#0" to="573" departLane="best"/>
    <trip id="170" depart="25.50" from="561" to="383" departLane="best"/>
    <trip id="171" depart="25.65" from="429#0" to="-98" departLane="best"/>
    <trip id="172" depart="25.80" from="478#1" to="457#0" departLane="best"/>
    <trip id="173" depart="25.95" from="658" to="407" departLane="best"/>
    <trip id="174" depart="26.10" from="370" to="355#0" departLane="best"/>
    <trip id="175" depart="26.25" from="428" to="397#4" departLane="best"/>
    <trip id="176" depart="26.40" from="488#2" to="594#0" departLane="best"/>
    <trip id="177" depart="26.55" from="401" to="8#2" departLane="best"/>
    <trip id="178" depart="26.70" from="-490#0" to="340" departLane="best"/>
    <trip id="179" depart="26.85" from="596#1" to="406#0" departLane="best"/>
    <trip id="180" depart="27.00" from="463#2" to="544#0" departLane="best"/>
    <trip id="181" depart="27.15" from="-637#0" to="537#0" departLane="best"/>
    <trip id="182" depart="27.30" from="569" to="105#1" departLane="best"/>
    <trip id="183" depart="27.45" from="543#3" to="450" departLane="best"/>
    <trip id="184" depart="27.60" from="644" to="-56#0" departLane="best"/>
    <trip id="185" depart="27.75" from="50" to="380" departLane="best"/>
    <trip id="186" depart="27.90" from="451" to="-87#1" departLane="best"/>
    <trip id="187" depart="28.05" from="571#2" to="384" departLane="best"/>
    <trip id="188" depart="28.20" from="621" to="361" departLane="best"/>
    <trip id="189" depart="28.35" from="592" to="-388#0" departLane="best"/>
    <trip id="190" depart="28.50" from="17" to="526#6" departLane="best"/>
    <trip id="191" depart="28.65" from="528" to="485#6" departLane="best"/>
    <trip id="192" depart="28.80" from="434" to="673" departLane="best"/>
    <trip id="193" depart="28.95" from="299#0" to="388#3" departLane="best"/>
    <trip id="194" depart="29.10" from="-490#0" to="472#1" departLane="best"/>
    <trip id="195" depart="29.25" from="415" to="591#2" departLane="best"/>
    <trip id="196" depart="29.40" from="525#0" to="670#3" departLane="best"/>
    <trip id="197" depart="29.55" from="641" to="15#0" departLane="best"/>
    <trip id="198" depart="29.70" from="504" to="650" departLane="best"/>
    <trip id="199" depart="29.85" from="596#1" to="316#1" departLane="best"/>
    <trip id="200" depart="30.00" from="651" to="665#0" departLane="best"/>
    <trip id="201" depart="30.15" from="474" to="411" departLane="best"/>
    <trip id="202" depart="30.30" from="474" to="472#1" departLane="best"/>
    <trip id="203" depart="30.45" from="441#1" to="3" departLane="best"/>
    <trip id="204" depart="30.60" from="46" to="511" departLane="best"/>
    <trip id="205" depart="30.75" from="360" to="389#0" departLane="best"/>
    <trip id="206" depart="30.90" from="581" to="385#0" departLane="best"/>
    <trip id="207" depart="31.05" from="539" to="411" departLane="best"/>
    <trip id="208" depart="31.20" from="56#1" to="449#1" departLane="best"/>
    <trip id="209" depart="31.35" from="98" to="549#1" departLane="best"/>
    <trip id="210" depart="31.50" from="-388#1" to="591#1" departLane="best"/>
    <trip id="211" depart="31.65" from="523" to="-332#1" departLane="best"/>
    <trip id="212" depart="31.80" from="25" to="26" departLane="best"/>
    <trip id="213" depart="31.95" from="63" to="405#2" departLane="best"/>
    <trip id="214" depart="32.10" from="570#1" to="388#3" departLane="best"/>
    <trip id="215" depart="32.25" from="-634#2" to="594#0" departLane="best"/>
    <trip id="216" depart="32.40" from="-544#2" to="388#3" departLane="best"/>
    <trip id="217" depart="32.55" from="557#2" to="341" departLane="best"/>
    <trip id="218" depart="32.70" from="10" to="455#1" departLane="best"/>
    <trip id="219" depart="32.85" from="49" to="378#1" departLane="best"/>
    <trip id="220" depart="33.00" from="355#0" to="401" departLane="best"/>
    <trip id="221" depart="33.15" from="368" to="68#1" departLane="best"/>
    <trip id="222" depart="33.30" from="374" to="528" departLane="best"/>
    <trip id="223" depart="33.45" from="669#1" to="543#4" departLane="best"/>
    <trip id="224" depart="33.60" from="423" to="8#2" departLane="best"/>
    <trip id="225" depart="33.75" from="485#6" to="389#0" departLane="best"/>
    <trip id="226" depart="33.90" from="663" to="14" departLane="best"/>
    <trip id="227" depart="34.05" from="670#3" to="354#1" departLane="best"/>
    <trip id="228" depart="34.20" from="-550#2" to="471#2" departLane="best"/>
    <trip id="229" depart="34.35" from="-546" to="468#0" departLane="best"/>
    <trip id="230" depart="34.50" from="361" to="93" departLane="best"/>
    <trip id="231" depart="34.65" from="411" to="581" departLane="best"/>
    <trip id="232" depart="34.80" from="74" to="605#1" departLane="best"/>
    <trip id="233" depart="34.95" from="561" to="-22#1" departLane="best"/>
    <trip id="234" depart="35.10" from="667" to="-341" departLane="best"/>
    <trip id="235" depart="35.25" from="557#2" to="488#3" departLane="best"/>
    <trip id="236" depart="35.40" from="591#1" to="409#1" departLane="best"/>
    <trip id="237" depart="35.55" from="406#0" to="543#4" departLane="best"/>
    <trip id="238" depart="35.70" from="550#0" to="673" departLane="best"/>
    <trip id="239" depart="35.85" from="397#0" to="105#0" departLane="best"/>
    <trip id="240" depart="36.00" from="22#1" to="549#1" departLane="best"/>
    <trip id="241" depart="36.15" from="637#1" to="666#1" departLane="best"/>
    <trip id="242" depart="36.30" from="381" to="-22#1" departLane="best"/>
    <trip id="243" depart="36.45" from="644" to="607" departLane="best"/>
    <trip id="244" depart="36.60" from="404#1" to="374" departLane="best"/>
    <trip id="245" depart="36.75" from="12" to="549#0" departLane="best"/>
    <trip id="246" depart="36.90" from="532#0" to="493" departLane="best"/>
    <trip id="247" depart="37.05" from="519" to="92" departLane="best"/>
    <trip id="248" depart="37.20" from="666#0" to="542#2" departLane="best"/>
    <trip id="249" depart="37.35" from="586#0" to="663" departLane="best"/>
    <trip id="250" depart="37.50" from="472#0" to="549#0" departLane="best"/>
    <trip id="251" depart="37.65" from="398#1" to="592" departLane="best"/>
    <trip id="252" depart="37.80" from="516#0" to="562" departLane="best"/>
    <trip id="253" depart="37.95" from="315" to="388#0" departLane="best"/>
    <trip id="254" depart="38.10" from="382" to="494#1" departLane="best"/>
    <trip id="255" depart="38.25" from="558#1" to="360" departLane="best"/>
    <trip id="256" depart="38.40" from="485#7" to="439" departLane="best"/>
    <trip id="257" depart="38.55" from="408#2" to="591#2" departLane="best"/>
    <trip id="258" depart="38.70" from="588" to="623#1" departLane="best"/>
    <trip id="259" depart="38.85" from="555#1" to="77#1" departLane="best"/>
    <trip id="260" depart="39.00" from="391" to="515" departLane="best"/>
    <trip id="261" depart="39.15" from="12" to="-511" departLane="best"/>
    <trip id="262" depart="39.30" from="509" to="482" departLane="best"/>
    <trip id="263" depart="39.45" from="526#6" to="105#1" departLane="best"/>
    <trip id="264" depart="39.60" from="596#1" to="406#0" departLane="best"/>
    <trip id="265" depart="39.75" from="564" to="665#1" departLane="best"/>
    <trip id="266" depart="39.90" from="585" to="30#2" departLane="best"/>
    <trip id="267" depart="40.05" from="348" to="554#0" departLane="best"/>
    <trip id="268" depart="40.20" from="94" to="76" departLane="best"/>
    <trip id="269" depart="40.35" from="71" to="400" departLane="best"/>
    <trip id="270" depart="40.50" from="649#5" to="67#0" departLane="best"/>
    <trip id="271" depart="40.65" from="49" to="537#2" departLane="best"/>
    <trip id="272" depart="40.80" from="421" to="586#2" departLane="best"/>
    <trip id="273" depart="40.95" from="428" to="487" departLane="best"/>
    <trip id="274" depart="41.10" from="48" to="397#2" departLane="best"/>
    <trip id="275" depart="41.25" from="10" to="457#1" departLane="best"/>
    <trip id="276" depart="41.40" from="526#4" to="467#0" departLane="best"/>
    <trip id="277" depart="41.55" from="94" to="87#1" departLane="best"/>
    <trip id="278" depart="41.70" from="594#1" to="471#0" departLane="best"/>
    <trip id="279" depart="41.85" from="350#2" to="110" departLane="best"/>
    <trip id="280" depart="42.00" from="558#0" to="526#4" departLane="best"/>
    <trip id="281" depart="42.15" from="374" to="86" departLane="best"/>
    <trip id="282" depart="42.30" from="106#0" to="641" departLane="best"/>
    <trip id="283" depart="42.45" from="341" to="499" departLane="best"/>
    <trip id="284" depart="42.60" from="621" to="543#3" departLane="best"/>
    <trip id="285" depart="42.75" from="518" to="433#1" departLane="best"/>
    <trip id="286" depart="42.90" from="-87#0" to="393" departLane="best"/>
    <trip id="287" depart="43.05" from="30#2" to="388#2" departLane="best"/>
    <trip id="288" depart="43.20" from="42" to="413#0" departLane="best"/>
    <trip id="289" depart="43.35" from="405#1" to="-378#1" departLane="best"/>
    <trip id="290" depart="43.50" from="498#0" to="567" departLane="best"/>
    <trip id="291" depart="43.65" from="40" to="474" departLane="best"/>
    <trip id="292" depart="43.80" from="-549#2" to="558#1" departLane="best"/>
    <trip id="293" depart="43.95" from="543#4" to="613#0" departLane="best"/>
    <trip id="294" depart="44.10" from="490#0" to="566#3" departLane="best"/>
    <trip id="295" depart="44.25" from="634#2" to="630" departLane="best"/>
    <trip id="296" depart="44.40" from="378#1" to="378#0" departLane="best"/>
    <trip id="297" depart="44.55" from="316#1" to="469#1" departLane="best"/>
    <trip id="298" depart="44.70" from="424" to="536" departLane="best"/>
    <trip id="299" depart="44.85" from="663" to="391" departLane="best"/>
    <trip id="300" depart="45.00" from="496#1" to="354#0" departLane="best"/>
    <trip id="301" depart="45.15" from="415" to="550#0" departLane="best"/>
    <trip id="302" depart="45.30" from="48" to="-65#1" departLane="best"/>
    <trip id="303" depart="45.45" from="578" to="11" departLane="best"/>
    <trip id="304" depart="45.60" from="672" to="441#1" departLane="best"/>
    <trip id="305" depart="45.75" from="505#0" to="614" departLane="best"/>
    <trip id="306" depart="45.90" from="571#2" to="-544#2" departLane="best"/>
    <trip id="307" depart="46.05" from="623#1" to="516#0" departLane="best"/>
    <trip id="308" depart="46.20" from="24#0" to="351#1" departLane="best"/>
    <trip id="309" depart="46.35" from="594#1" to="538#1" departLane="best"/>
    <trip id="310" depart="46.50" from="444" to="446#0" departLane="best"/>
    <trip id="311" depart="46.65" from="600#0" to="-105#0" departLane="best"/>
    <trip id="312" depart="46.80" from="608#0" to="349" departLane="best"/>
    <trip id="313" depart="46.95" from="14" to="600#1" departLane="best"/>
    <trip id="314" depart="47.10" from="488#6" to="557#0" departLane="best"/>
    <trip id="315" depart="47.25" from="-65#0" to="616" departLane="best"/>
    <trip id="316" depart="47.40" from="591#0" to="655" departLane="best"/>
    <trip id="317" depart="47.55" from="398#1" to="435" departLane="best"/>
    <trip id="318" depart="47.70" from="358#2" to="50" departLane="best"/>
    <trip id="319" depart="47.85" from="405#1" to="423" departLane="best"/>
    <trip id="320" depart="48.00" from="305" to="545" departLane="best"/>
    <trip id="321" depart="48.15" from="459#0" to="482" departLane="best"/>
    <trip id="322" depart="48.30" from="496#1" to="672" departLane="best"/>
    <trip id="323" depart="48.45" from="625" to="562" departLane="best"/>
    <trip id="324" depart="48.60" from="-106#1" to="385#0" departLane="best"/>
    <trip id="325" depart="48.75" from="617" to="95" departLane="best"/>
    <trip id="326" depart="48.90" from="622" to="576" departLane="best"/>
    <trip id="327" depart="49.05" from="542#0" to="386#0" departLane="best"/>
    <trip id="328" depart="49.20" from="525#1" to="602" departLane="best"/>
    <trip id="329" depart="49.35" from="506#2" to="-106#0" departLane="best"/>
    <trip id="330" depart="49.50" from="397#0" to="460" departLane="best"/>
    <trip id="331" depart="49.65" from="516#1" to="532#1" departLane="best"/>
    <trip id="332" depart="49.80" from="386#0" to="86" departLane="best"/>
    <trip id="333" depart="49.95" from="668" to="-550#0" departLane="best"/>
    <trip id="334" depart="50.10" from="-98" to="665#1" departLane="best"/>
    <trip id="335" depart="50.25" from="-341" to="454" departLane="best"/>
    <trip id="336" depart="50.40" from="397#5" to="368" departLane="best"/>
    <trip id="337" depart="50.55" from="445" to="-551#3" departLane="best"/>
    <trip id="338" depart="50.70" from="538#3" to="472#1" departLane="best"/>
    <trip id="339" depart="50.85" from="508#0" to="-56#1" departLane="best"/>
    <trip id="340" depart="51.00" from="450" to="496#1" departLane="best"/>
    <trip id="341" depart="51.15" from="-43" to="540#1" departLane="best"/>
    <trip id="342" depart="51.30" from="527" to="648" departLane="best"/>
    <trip id="343" depart="51.45" from="498#1" to="569" departLane="best"/>
    <trip id="344" depart="51.60" from="554#2" to="571#1" departLane="best"/>
    <trip id="345" depart="51.75" from="541" to="558#1" departLane="best"/>
    <trip id="346" depart="51.90" from="602" to="588" departLane="best"/>
    <trip id="347" depart="52.05" from="424" to="31" departLane="best"/>
    <trip id="348" depart="52.20" from="366" to="473" departLane="best"/>
    <trip id="349" depart="52.35" from="621" to="-43" departLane="best"/>
    <trip id="350" depart="52.50" from="413#1" to="549#0" departLane="best"/>
    <trip id="351" depart="52.65" from="18" to="411" departLane="best"/>
    <trip id="352" depart="52.80" from="571#2" to="670#2" departLane="best"/>
    <trip id="353" depart="52.95" from="484" to="-388#0" departLane="best"/>
    <trip id="354" depart="53.10" from="359" to="658" departLane="best"/>
    <trip id="355" depart="53.25" from="593" to="65#1" departLane="best"/>
    <trip id="356" depart="53.40" from="305" to="670#3" departLane="best"/>
    <trip id="357" depart="53.55" from="513" to="490#1" departLane="best"/>
    <trip id="358" depart="53.70" from="669#0" to="96" departLane="best"/>
    <trip id="359" depart="53.85" from="629" to="429#0" departLane="best"/>
    <trip id="360" depart="54.00" from="596#0" to="577" departLane="best"/>
    <trip id="361" depart="54.15" from="358#2" to="13" departLane="best"/>
    <trip id="362" depart="54.30" from="539" to="510" departLane="best"/>
    <trip id="363" depart="54.45" from="30#0" to="446#0" departLane="best"/>
    <trip id="364" depart="54.60" from="361" to="502#1" departLane="best"/>
    <trip id="365" depart="54.75" from="592" to="520" departLane="best"/>
    <trip id="366" depart="54.90" from="388#2" to="579" departLane="best"/>
    <trip id="367" depart="55.05" from="307" to="40" departLane="best"/>
    <trip id="368" depart="55.20" from="605#1" to="-308" departLane="best"/>
    <trip id="369" depart="55.35" from="368" to="-388#0" departLane="best"/>
    <trip id="370" depart="55.50" from="544#2" to="-551#3" departLane="best"/>
    <trip id="371" depart="55.65" from="669#2" to="592" departLane="best"/>
    <trip id="372" depart="55.80" from="402" to="458" departLane="best"/>
    <trip id="373" depart="55.95" from="521" to="410#0" departLane="best"/>
    <trip id="374" depart="56.10" from="-551#1" to="647" departLane="best"/>
    <trip id="375" depart="56.25" from="514" to="-87#0" departLane="best"/>
    <trip id="376" depart="56.40" from="72" to="652" departLane="best"/>
    <trip id="377" depart="56.55" from="360" to="537#1" departLane="best"/>
    <trip id="378" depart="56.70" from="398#2" to="661#0" departLane="best"/>
    <trip id="379" depart="56.85" from="576" to="-551#3" departLane="best"/>
    <trip id="380" depart="57.00" from="643" to="542#0" departLane="best"/>
    <trip id="381" depart="57.15" from="431#1" to="553#0" departLane="best"/>
    <trip id="382" depart="57.30" from="398#2" to="-308" departLane="best"/>
    <trip id="383" depart="57.45" from="662#1" to="478#1" departLane="best"/>
    <trip id="384" depart="57.60" from="25" to="431#0" departLane="best"/>
    <trip id="385" depart="57.75" from="299#1" to="427" departLane="best"/>
    <trip id="386" depart="57.90" from="590" to="367" departLane="best"/>
    <trip id="387" depart="58.05" from="507" to="434" departLane="best"/>
    <trip id="388" depart="58.20" from="-297" to="-307" departLane="best"/>
    <trip id="389" depart="58.35" from="485#2" to="591#2" departLane="best"/>
    <trip id="390" depart="58.50" from="508#1" to="332#0" departLane="best"/>
    <trip id="391" depart="58.65" from="452" to="-551#2" departLane="best"/>
    <trip id="392" depart="58.80" from="-551#0" to="-98" departLane="best"/>
    <trip id="393" depart="58.95" from="538#0" to="-551#3" departLane="best"/>