<additional>
	<vType id="RSU" color="255,0,0" guiShape="bus"/>

	<vehicle id="400" type="RSU" depart="0" departPos="94.97" color="255,0,0">
		<route edges="299#1"/>
		<stop lane="299#1_0" parking="true" endPos="94.97" until="498"/>
	</vehicle>
	<vehicle id="401" type="RSU" depart="0" departPos="270.12" color="255,0,0">
		<route edges="1#0"/>
		<stop lane="1#0_0" parking="true" endPos="270.12" until="498"/>
	</vehicle>
	<vehicle id="402" type="RSU" depart="0" departPos="266.18" color="255,0,0">
		<route edges="571#1"/>
		<stop lane="571#1_0" parking="true" endPos="266.18" until="498"/>
	</vehicle>
	<vehicle id="403" type="RSU" depart="0" departPos="24.04" color="255,0,0">
		<route edges="596#0"/>
		<stop lane="596#0_0" parking="true" endPos="24.04" until="498"/>
	</vehicle>
	<vehicle id="404" type="RSU" depart="0" departPos="146.81" color="255,0,0">
		<route edges="594#2"/>
		<stop lane="594#2_0" parking="true" endPos="146.81" until="498"/>
	</vehicle>
	<vehicle id="405" type="RSU" depart="0" departPos="506.8" color="255,0,0">
		<route edges="387"/>
		<stop lane="387_0" parking="true" endPos="506.8" until="498"/>
	</vehicle>
	<vehicle id="406" type="RSU" depart="0" departPos="105.03" color="255,0,0">
		<route edges="499"/>
		<stop lane="499_0" parking="true" endPos="105.03" until="498"/>
	</vehicle>
	<vehicle id="407" type="RSU" depart="0" departPos="286.87" color="255,0,0">
		<route edges="664#0"/>
		<stop lane="664#0_0" parking="true" endPos="286.87" until="498"/>
	</vehicle>
	<vehicle id="408" type="RSU" depart="0" departPos="37.89" color="255,0,0">
		<route edges="457#0"/>
		<stop lane="457#0_0" parking="true" endPos="37.89" until="498"/>
	</vehicle>
	<vehicle id="409" type="RSU" depart="0" departPos="223.63" color="255,0,0">
		<route edges="627"/>
		<stop lane="627_0" parking="true" endPos="223.63" until="498"/>
	</vehicle>
	<vehicle id="410" type="RSU" depart="0" departPos="266.94" color="255,0,0">
		<route edges="497"/>
		<stop lane="497_0" parking="true" endPos="266.94" until="498"/>
	</vehicle>
	<vehicle id="411" type="RSU" depart="0" departPos="702.1" color="255,0,0">
		<route edges="59"/>
		<stop lane="59_0" parking="true" endPos="702.1" until="498"/>
	</vehicle>
	<vehicle id="412" type="RSU" depart="0" departPos="269.66" color="255,0,0">
		<route edges="568"/>
		<stop lane="568_0" parking="true" endPos="269.66" until="498"/>
	</vehicle>
	<vehicle id="413" type="RSU" depart="0" departPos="27.22" color="255,0,0">
		<route edges="629"/>
		<stop lane="629_0" parking="true" endPos="27.22" until="498"/>
	</vehicle>
	<vehicle id="414" type="RSU" depart="0" departPos="29.96" color="255,0,0">
		<route edges="15#1"/>
		<stop lane="15#1_0" parking="true" endPos="29.96" until="498"/>
	</vehicle>
	<vehicle id="415" type="RSU" depart="0" departPos="285.1" color="255,0,0">
		<route edges="50"/>
		<stop lane="50_0" parking="true" endPos="285.1" until="498"/>
	</vehicle>
	<vehicle id="416" type="RSU" depart="0" departPos="69.89" color="255,0,0">
		<route edges="-96"/>
		<stop lane="-96_0" parking="true" endPos="69.89" until="498"/>
	</vehicle>
	<vehicle id="417" type="RSU" depart="0" departPos="166.26" color="255,0,0">
		<route edges="508#1"/>
		<stop lane="508#1_0" parking="true" endPos="166.26" until="498"/>
	</vehicle>
	<vehicle id="418" type="RSU" depart="0" departPos="21.52" color="255,0,0">
		<route edges="560"/>
		<stop lane="560_0" parking="true" endPos="21.52" until="498"/>
	</vehicle>
	<vehicle id="419" type="RSU" depart="0" departPos="246.63" color="255,0,0">
		<route edges="-305"/>
		<stop lane="-305_0" parking="true" endPos="246.63" until="498"/>
	</vehicle>
	<vehicle id="420" type="RSU" depart="0" departPos="239.16" color="255,0,0">
		<route edges="-378#1"/>
		<stop lane="-378#1_0" parking="true" endPos="239.16" until="498"/>
	</vehicle>
	<vehicle id="421" type="RSU" depart="0" departPos="42.44" color="255,0,0">
		<route edges="463#2"/>
		<stop lane="463#2_0" parking="true" endPos="42.44" until="498"/>
	</vehicle>
	<vehicle id="422" type="RSU" depart="0" departPos="182.38" color="255,0,0">
		<route edges="349"/>
		<stop lane="349_0" parking="true" endPos="182.38" until="498"/>
	</vehicle>
	<vehicle id="423" type="RSU" depart="0" departPos="311.57" color="255,0,0">
		<route edges="321#0"/>
		<stop lane="321#0_0" parking="true" endPos="311.57" until="498"/>
	</vehicle>
	<vehicle id="424" type="RSU" depart="0" departPos="63.92" color="255,0,0">
		<route edges="621"/>
		<stop lane="621_0" parking="true" endPos="63.92" until="498"/>
	</vehicle>
	<vehicle id="425" type="RSU" depart="0" departPos="127.12" color="255,0,0">
		<route edges="-307"/>
		<stop lane="-307_0" parking="true" endPos="127.12" until="498"/>
	</vehicle>
	<vehicle id="426" type="RSU" depart="0" departPos="193.37" color="255,0,0">
		<route edges="651"/>
		<stop lane="651_0" parking="true" endPos="193.37" until="498"/>
	</vehicle>
	<vehicle id="427" type="RSU" depart="0" departPos="59.0" color="255,0,0">
		<route edges="67#0"/>
		<stop lane="67#0_0" parking="true" endPos="59.0" until="498"/>
	</vehicle>
	<vehicle id="428" type="RSU" depart="0" departPos="384.9" color="255,0,0">
		<route edges="20"/>
		<stop lane="20_0" parking="true" endPos="384.9" until="498"/>
	</vehicle>
	<vehicle id="429" type="RSU" depart="0" departPos="126.98" color="255,0,0">
		<route edges="531"/>
		<stop lane="531_0" parking="true" endPos="126.98" until="498"/>
	</vehicle>
	<vehicle id="430" type="RSU" depart="0" departPos="150.08" color="255,0,0">
		<route edges="458"/>
		<stop lane="458_0" parking="true" endPos="150.08" until="498"/>
	</vehicle>
	<vehicle id="431" type="RSU" depart="0" departPos="21.29" color="255,0,0">
		<route edges="617"/>
		<stop lane="617_0" parking="true" endPos="21.29" until="498"/>
	</vehicle>
	<vehicle id="432" type="RSU" depart="0" departPos="16.86" color="255,0,0">
		<route edges="594#0"/>
		<stop lane="594#0_0" parking="true" endPos="16.86" until="498"/>
	</vehicle>
	<vehicle id="433" type="RSU" depart="0" departPos="176.69" color="255,0,0">
		<route edges="341"/>
		<stop lane="341_0" parking="true" endPos="176.69" until="498"/>
	</vehicle>
	<vehicle id="434" type="RSU" depart="0" departPos="137.32" color="255,0,0">
		<route edges="76"/>
		<stop lane="76_0" parking="true" endPos="137.32" until="498"/>
	</vehicle>
	<vehicle id="435" type="RSU" depart="0" departPos="41.21" color="255,0,0">
		<route edges="405#0"/>
		<stop lane="405#0_0" parking="true" endPos="41.21" until="498"/>
	</vehicle>
	<vehicle id="436" type="RSU" depart="0" departPos="43.19" color="255,0,0">
		<route edges="539"/>
		<stop lane="539_0" parking="true" endPos="43.19" until="498"/>
	</vehicle>
	<vehicle id="437" type="RSU" depart="0" departPos="116.42" color="255,0,0">
		<route edges="-299#0"/>
		<stop lane="-299#0_0" parking="true" endPos="116.42" until="498"/>
	</vehicle>
	<vehicle id="438" type="RSU" depart="0" departPos="154.47" color="255,0,0">
		<route edges="405#2"/>
		<stop lane="405#2_0" parking="true" endPos="154.47" until="498"/>
	</vehicle>
	<vehicle id="439" type="RSU" depart="0" departPos="52.48" color="255,0,0">
		<route edges="110"/>
		<stop lane="110_0" parking="true" endPos="52.48" until="498"/>
	</vehicle>
	<vehicle id="440" type="RSU" depart="0" departPos="118.68" color="255,0,0">
		<route edges="407"/>
		<stop lane="407_0" parking="true" endPos="118.68" until="498"/>
	</vehicle>
	<vehicle id="441" type="RSU" depart="0" departPos="92.35" color="255,0,0">
		<route edges="471#0"/>
		<stop lane="471#0_0" parking="true" endPos="92.35" until="498"/>
	</vehicle>
	<vehicle id="442" type="RSU" depart="0" departPos="5031.36" color="255,0,0">
		<route edges="608#0"/>
		<stop lane="608#0_0" parking="true" endPos="5031.36" until="498"/>
	</vehicle>
	<vehicle id="443" type="RSU" depart="0" departPos="162.4" color="255,0,0">
		<route edges="498#1"/>
		<stop lane="498#1_0" parking="true" endPos="162.4" until="498"/>
	</vehicle>
	<vehicle id="444" type="RSU" depart="0" departPos="213.5" color="255,0,0">
		<route edges="463#0"/>
		<stop lane="463#0_0" parking="true" endPos="213.5" until="498"/>
	</vehicle>
	<vehicle id="445" type="RSU" depart="0" departPos="310.02" color="255,0,0">
		<route edges="429#0"/>
		<stop lane="429#0_0" parking="true" endPos="310.02" until="498"/>
	</vehicle>
	<vehicle id="446" type="RSU" depart="0" departPos="53.78" color="255,0,0">
		<route edges="439"/>
		<stop lane="439_0" parking="true" endPos="53.78" until="498"/>
	</vehicle>
	<vehicle id="447" type="RSU" depart="0" departPos="173.15" color="255,0,0">
		<route edges="52"/>
		<stop lane="52_0" parking="true" endPos="173.15" until="498"/>
	</vehicle>
	<vehicle id="448" type="RSU" depart="0" departPos="51.47" color="255,0,0">
		<route edges="408#1"/>
		<stop lane="408#1_0" parking="true" endPos="51.47" until="498"/>
	</vehicle>
	<vehicle id="449" type="RSU" depart="0" departPos="764.28" color="255,0,0">
		<route edges="556"/>
		<stop lane="556_0" parking="true" endPos="764.28" until="498"/>
	</vehicle>
	<vehicle id="450" type="RSU" depart="0" departPos="14.45" color="255,0,0">
		<route edges="535#1"/>
		<stop lane="535#1_0" parking="true" endPos="14.45" until="498"/>
	</vehicle>
	<vehicle id="451" type="RSU" depart="0" departPos="145.67" color="255,0,0">
		<route edges="566#1"/>
		<stop lane="566#1_0" parking="true" endPos="145.67" until="498"/>
	</vehicle>
	<vehicle id="452" type="RSU" depart="0" departPos="77.92" color="255,0,0">
		<route edges="566#3"/>
		<stop lane="566#3_0" parking="true" endPos="77.92" until="498"/>
	</vehicle>
	<vehicle id="453" type="RSU" depart="0" departPos="183.27" color="255,0,0">
		<route edges="23#1"/>
		<stop lane="23#1_0" parking="true" endPos="183.27" until="498"/>
	</vehicle>
	<vehicle id="454" type="RSU" depart="0" departPos="71.09" color="255,0,0">
		<route edges="358#2"/>
		<stop lane="358#2_0" parking="true" endPos="71.09" until="498"/>
	</vehicle>
	<vehicle id="455" type="RSU" depart="0" departPos="65.83" color="255,0,0">
		<route edges="363"/>
		<stop lane="363_0" parking="true" endPos="65.83" until="498"/>
	</vehicle>
	<vehicle id="456" type="RSU" depart="0" departPos="64.24" color="255,0,0">
		<route edges="533"/>
		<stop lane="533_0" parking="true" endPos="64.24" until="498"/>
	</vehicle>
	<vehicle id="457" type="RSU" depart="0" departPos="296.54" color="255,0,0">
		<route edges="468#1"/>
		<stop lane="468#1_0" parking="true" endPos="296.54" until="498"/>
	</vehicle>
	<vehicle id="458" type="RSU" depart="0" departPos="153.8" color="255,0,0">
		<route edges="449#0"/>
		<stop lane="449#0_0" parking="true" endPos="153.8" until="498"/>
	</vehicle>
	<vehicle id="459" type="RSU" depart="0" departPos="80.36" color="255,0,0">
		<route edges="496#0"/>
		<stop lane="496#0_0" parking="true" endPos="80.36" until="498"/>
	</vehicle>
	<vehicle id="460" type="RSU" depart="0" departPos="73.38" color="255,0,0">
		<route edges="519"/>
		<stop lane="519_0" parking="true" endPos="73.38" until="498"/>
	</vehicle>
	<vehicle id="461" type="RSU" depart="0" departPos="157.44" color="255,0,0">
		<route edges="397#5"/>
		<stop lane="397#5_0" parking="true" endPos="157.44" until="498"/>
	</vehicle>
	<vehicle id="462" type="RSU" depart="0" departPos="62.32" color="255,0,0">
		<route edges="74"/>
		<stop lane="74_0" parking="true" endPos="62.32" until="498"/>
	</vehicle>
	<vehicle id="463" type="RSU" depart="0" departPos="26.83" color="255,0,0">
		<route edges="665#0"/>
		<stop lane="665#0_0" parking="true" endPos="26.83" until="498"/>
	</vehicle>
	<vehicle id="464" type="RSU" depart="0" departPos="194.78" color="255,0,0">
		<route edges="496#2"/>
		<stop lane="496#2_0" parking="true" endPos="194.78" until="498"/>
	</vehicle>
	<vehicle id="465" type="RSU" depart="0" departPos="185.32" color="255,0,0">
		<route edges="538#0"/>
		<stop lane="538#0_0" parking="true" endPos="185.32" until="498"/>
	</vehicle>
	<vehicle id="466" type="RSU" depart="0" departPos="191.9" color="255,0,0">
		<route edges="540#1"/>
		<stop lane="540#1_0" parking="true" endPos="191.9" until="498"/>
	</vehicle>
	<vehicle id="467" type="RSU" depart="0" departPos="265.42" color="255,0,0">
		<route edges="549#2"/>
		<stop lane="549#2_0" parking="true" endPos="265.42" until="498"/>
	</vehicle>
	<vehicle id="468" type="RSU" depart="0" departPos="176.72" color="255,0,0">
		<route edges="8#2"/>
		<stop lane="8#2_0" parking="true" endPos="176.72" until="498"/>
	</vehicle>
	<vehicle id="469" type="RSU" depart="0" departPos="61.13" color="255,0,0">
		<route edges="517"/>
		<stop lane="517_0" parking="true" endPos="61.13" until="498"/>
	</vehicle>
	<vehicle id="470" type="RSU" depart="0" departPos="33.1" color="255,0,0">
		<route edges="558#0"/>
		<stop lane="558#0_0" parking="true" endPos="33.1" until="498"/>
	</vehicle>
	<vehicle id="471" type="RSU" depart="0" departPos="125.3" color="255,0,0">
		<route edges="-9"/>
		<stop lane="-9_0" parking="true" endPos="125.3" until="498"/>
	</vehicle>
	<vehicle id="472" type="RSU" depart="0" departPos="638.87" color="255,0,0">
		<route edges="-634#0"/>
		<stop lane="-634#0_0" parking="true" endPos="638.87" until="498"/>
	</vehicle>
	<vehicle id="473" type="RSU" depart="0" departPos="153.35" color="255,0,0">
		<route edges="397#3"/>
		<stop lane="397#3_0" parking="true" endPos="153.35" until="498"/>
	</vehicle>
	<vehicle id="474" type="RSU" depart="0" departPos="236.73" color="255,0,0">
		<route edges="367"/>
		<stop lane="367_0" parking="true" endPos="236.73" until="498"/>
	</vehicle>
	<vehicle id="475" type="RSU" depart="0" departPos="32.73" color="255,0,0">
		<route edges="391"/>
		<stop lane="391_0" parking="true" endPos="32.73" until="498"/>
	</vehicle>
	<vehicle id="476" type="RSU" depart="0" departPos="81.57" color="255,0,0">
		<route edges="615"/>
		<stop lane="615_0" parking="true" endPos="81.57" until="498"/>
	</vehicle>
	<vehicle id="477" type="RSU" depart="0" departPos="170.79" color="255,0,0">
		<route edges="94"/>
		<stop lane="94_0" parking="true" endPos="170.79" until="498"/>
	</vehicle>
	<vehicle id="478" type="RSU" depart="0" departPos="270.15" color="255,0,0">
		<route edges="637#1"/>
		<stop lane="637#1_0" parking="true" endPos="270.15" until="498"/>
	</vehicle>
	<vehicle id="479" type="RSU" depart="0" departPos="701.98" color="255,0,0">
		<route edges="21"/>
		<stop lane="21_0" parking="true" endPos="701.98" until="498"/>
	</vehicle>
	<vehicle id="480" type="RSU" depart="0" departPos="115.54" color="255,0,0">
		<route edges="441#1"/>
		<stop lane="441#1_0" parking="true" endPos="115.54" until="498"/>
	</vehicle>
	<vehicle id="481" type="RSU" depart="0" departPos="326.25" color="255,0,0">
		<route edges="427"/>
		<stop lane="427_0" parking="true" endPos="326.25" until="498"/>
	</vehicle>
	<vehicle id="482" type="RSU" depart="0" departPos="447.5" color="255,0,0">
		<route edges="73"/>
		<stop lane="73_0" parking="true" endPos="447.5" until="498"/>
	</vehicle>
	<vehicle id="483" type="RSU" depart="0" departPos="84.32" color="255,0,0">
		<route edges="471#2"/>
		<stop lane="471#2_0" parking="true" endPos="84.32" until="498"/>
	</vehicle>
	<vehicle id="484" type="RSU" depart="0" departPos="270.66" color="255,0,0">
		<route edges="8#0"/>
		<stop lane="8#0_0" parking="true" endPos="270.66" until="498"/>
	</vehicle>
	<vehicle id="485" type="RSU" depart="0" departPos="141.44" color="255,0,0">
		<route edges="549#0"/>
		<stop lane="549#0_0" parking="true" endPos="141.44" until="498"/>
	</vehicle>
	<vehicle id="486" type="RSU" depart="0" departPos="56.97" color="255,0,0">
		<route edges="348"/>
		<stop lane="348_0" parking="true" endPos="56.97" until="498"/>
	</vehicle>
	<vehicle id="487" type="RSU" depart="0" departPos="72.88" color="255,0,0">
		<route edges="44"/>
		<stop lane="44_0" parking="true" endPos="72.88" until="498"/>
	</vehicle>
	<vehicle id="488" type="RSU" depart="0" departPos="103.97" color="255,0,0">
		<route edges="6"/>
		<stop lane="6_0" parking="true" endPos="103.97" until="498"/>
	</vehicle>
	<vehicle id="489" type="RSU" depart="0" departPos="265.67" color="255,0,0">
		<route edges="605#2"/>
		<stop lane="605#2_0" parking="true" endPos="265.67" until="498"/>
	</vehicle>
	<vehicle id="490" type="RSU" depart="0" departPos="335.53" color="255,0,0">
		<route edges="380"/>
		<stop lane="380_0" parking="true" endPos="335.53" until="498"/>
	</vehicle>
	<vehicle id="491" type="RSU" depart="0" departPos="103.8" color="255,0,0">
		<route edges="494#1"/>
		<stop lane="494#1_0" parking="true" endPos="103.8" until="498"/>
	</vehicle>
	<vehicle id="492" type="RSU" depart="0" departPos="21.03" color="255,0,0">
		<route edges="624"/>
		<stop lane="624_0" parking="true" endPos="21.03" until="498"/>
	</vehicle>
	<vehicle id="493" type="RSU" depart="0" departPos="209.64" color="255,0,0">
		<route edges="488#5"/>
		<stop lane="488#5_0" parking="true" endPos="209.64" until="498"/>
	</vehicle>
	<vehicle id="494" type="RSU" depart="0" departPos="24.19" color="255,0,0">
		<route edges="654"/>
		<stop lane="654_0" parking="true" endPos="24.19" until="498"/>
	</vehicle>
	<vehicle id="495" type="RSU" depart="0" departPos="29.6" color="255,0,0">
		<route edges="626"/>
		<stop lane="626_0" parking="true" endPos="29.6" until="498"/>
	</vehicle>
	<vehicle id="496" type="RSU" depart="0" departPos="284.54" color="255,0,0">
		<route edges="46"/>
		<stop lane="46_0" parking="true" endPos="284.54" until="498"/>
	</vehicle>
	<vehicle id="497" type="RSU" depart="0" departPos="895.73" color="255,0,0">
		<route edges="612#1"/>
		<stop lane="612#1_0" parking="true" endPos="895.73" until="498"/>
	</vehicle>
	<vehicle id="498" type="RSU" depart="0" departPos="214.24" color="255,0,0">
		<route edges="594#1"/>
		<stop lane="594#1_0" parking="true" endPos="214.24" until="498"/>
	</vehicle>
	<vehicle id="499" type="RSU" depart="0" departPos="264.61" color="255,0,0">
		<route edges="663"/>
		<stop lane="663_0" parking="true" endPos="264.61" until="498"/>
	</vehicle>
	<vehicle id="500" type="RSU" depart="0" departPos="883.73" color="255,0,0">
		<route edges="605#0"/>
		<stop lane="605#0_0" parking="true" endPos="883.73" until="498"/>
	</vehicle>
	<vehicle id="501" type="RSU" depart="0" departPos="51.23" color="255,0,0">
		<route edges="423"/>
		<stop lane="423_0" parking="true" endPos="51.23" until="498"/>
	</vehicle>
	<vehicle id="502" type="RSU" depart="0" departPos="74.02" color="255,0,0">
		<route edges="15#0"/>
		<stop lane="15#0_0" parking="true" endPos="74.02" until="498"/>
	</vehicle>
	<vehicle id="503" type="RSU" depart="0" departPos="151.61" color="255,0,0">
		<route edges="451"/>
		<stop lane="451_0" parking="true" endPos="151.61" until="498"/>
	</vehicle>
	<vehicle id="504" type="RSU" depart="0" departPos="371.58" color="255,0,0">
		<route edges="-483"/>
		<stop lane="-483_0" parking="true" endPos="371.58" until="498"/>
	</vehicle>
	<vehicle id="505" type="RSU" depart="0" departPos="39.91" color="255,0,0">
		<route edges="421"/>
		<stop lane="421_0" parking="true" endPos="39.91" until="498"/>
	</vehicle>
	<vehicle id="506" type="RSU" depart="0" departPos="7.88" color="255,0,0">
		<route edges="321#1"/>
		<stop lane="321#1_0" parking="true" endPos="7.88" until="498"/>
	</vehicle>
	<vehicle id="507" type="RSU" depart="0" departPos="163.09" color="255,0,0">
		<route edges="634#1"/>
		<stop lane="634#1_0" parking="true" endPos="163.09" until="498"/>
	</vehicle>
	<vehicle id="508" type="RSU" depart="0" departPos="238.62" color="255,0,0">
		<route edges="-378#0"/>
		<stop lane="-378#0_0" parking="true" endPos="238.62" until="498"/>
	</vehicle>
	<vehicle id="509" type="RSU" depart="0" departPos="7.7" color="255,0,0">
		<route edges="550#1"/>
		<stop lane="550#1_0" parking="true" endPos="7.7" until="498"/>
	</vehicle>
	<vehicle id="510" type="RSU" depart="0" departPos="356.5" color="255,0,0">
		<route edges="25"/>
		<stop lane="25_0" parking="true" endPos="356.5" until="498"/>
	</vehicle>
	<vehicle id="511" type="RSU" depart="0" departPos="191.63" color="255,0,0">
		<route edges="455#2"/>
		<stop lane="455#2_0" parking="true" endPos="191.63" until="498"/>
	</vehicle>
	<vehicle id="512" type="RSU" depart="0" departPos="9.64" color="255,0,0">
		<route edges="67#1"/>
		<stop lane="67#1_0" parking="true" endPos="9.64" until="498"/>
	</vehicle>
	<vehicle id="513" type="RSU" depart="0" departPos="102.27" color="255,0,0">
		<route edges="620"/>
		<stop lane="620_0" parking="true" endPos="102.27" until="498"/>
	</vehicle>
	<vehicle id="514" type="RSU" depart="0" departPos="233.02" color="255,0,0">
		<route edges="666#0"/>
		<stop lane="666#0_0" parking="true" endPos="233.02" until="498"/>
	</vehicle>
	<vehicle id="515" type="RSU" depart="0" departPos="220.12" color="255,0,0">
		<route edges="-56#0"/>
		<stop lane="-56#0_0" parking="true" endPos="220.12" until="498"/>
	</vehicle>
	<vehicle id="516" type="RSU" depart="0" departPos="53.62" color="255,0,0">
		<route edges="382"/>
		<stop lane="382_0" parking="true" endPos="53.62" until="498"/>
	</vehicle>
	<vehicle id="517" type="RSU" depart="0" departPos="223.99" color="255,0,0">
		<route edges="661#0"/>
		<stop lane="661#0_0" parking="true" endPos="223.99" until="498"/>
	</vehicle>
	<vehicle id="518" type="RSU" depart="0" departPos="219.43" color="255,0,0">
		<route edges="459#1"/>
		<stop lane="459#1_0" parking="true" endPos="219.43" until="498"/>
	</vehicle>
	<vehicle id="519" type="RSU" depart="0" departPos="150.91" color="255,0,0">
		<route edges="-65#1"/>
		<stop lane="-65#1_0" parking="true" endPos="150.91" until="498"/>
	</vehicle>
	<vehicle id="520" type="RSU" depart="0" departPos="124.54" color="255,0,0">
		<route edges="431#1"/>
		<stop lane="431#1_0" parking="true" endPos="124.54" until="498"/>
	</vehicle>
	<vehicle id="521" type="RSU" depart="0" departPos="45.53" color="255,0,0">
		<route edges="410#1"/>
		<stop lane="410#1_0" parking="true" endPos="45.53" until="498"/>
	</vehicle>
	<vehicle id="522" type="RSU" depart="0" departPos="269.95" color="255,0,0">
		<route edges="43"/>
		<stop lane="43_0" parking="true" endPos="269.95" until="498"/>
	</vehicle>
	<vehicle id="523" type="RSU" depart="0" departPos="265.26" color="255,0,0">
		<route edges="595"/>
		<stop lane="595_0" parking="true" endPos="265.26" until="498"/>
	</vehicle>
	<vehicle id="524" type="RSU" depart="0" departPos="132.78" color="255,0,0">
		<route edges="551#3"/>
		<stop lane="551#3_0" parking="true" endPos="132.78" until="498"/>
	</vehicle>
	<vehicle id="525" type="RSU" depart="0" departPos="152.23" color="255,0,0">
		<route edges="457#1"/>
		<stop lane="457#1_0" parking="true" endPos="152.23" until="498"/>
	</vehicle>
	<vehicle id="526" type="RSU" depart="0" departPos="89.36" color="255,0,0">
		<route edges="68#0"/>
		<stop lane="68#0_0" parking="true" endPos="89.36" until="498"/>
	</vehicle>
	<vehicle id="527" type="RSU" depart="0" departPos="277.67" color="255,0,0">
		<route edges="550#2"/>
		<stop lane="550#2_0" parking="true" endPos="277.67" until="498"/>
	</vehicle>
	<vehicle id="528" type="RSU" depart="0" departPos="765.32" color="255,0,0">
		<route edges="5"/>
		<stop lane="5_0" parking="true" endPos="765.32" until="498"/>
	</vehicle>
	<vehicle id="529" type="RSU" depart="0" departPos="22.38" color="255,0,0">
		<route edges="-490#0"/>
		<stop lane="-490#0_0" parking="true" endPos="22.38" until="498"/>
	</vehicle>
	<vehicle id="530" type="RSU" depart="0" departPos="176.69" color="255,0,0">
		<route edges="-341"/>
		<stop lane="-341_0" parking="true" endPos="176.69" until="498"/>
	</vehicle>
	<vehicle id="531" type="RSU" depart="0" departPos="756.56" color="255,0,0">
		<route edges="400"/>
		<stop lane="400_0" parking="true" endPos="756.56" until="498"/>
	</vehicle>
	<vehicle id="532" type="RSU" depart="0" departPos="58.36" color="255,0,0">
		<route edges="650"/>
		<stop lane="650_0" parking="true" endPos="58.36" until="498"/>
	</vehicle>
	<vehicle id="533" type="RSU" depart="0" departPos="73.95" color="255,0,0">
		<route edges="669#2"/>
		<stop lane="669#2_0" parking="true" endPos="73.95" until="498"/>
	</vehicle>
	<vehicle id="534" type="RSU" depart="0" departPos="127.12" color="255,0,0">
		<route edges="307"/>
		<stop lane="307_0" parking="true" endPos="127.12" until="498"/>
	</vehicle>
	<vehicle id="535" type="RSU" depart="0" departPos="50.15" color="255,0,0">
		<route edges="418#0"/>
		<stop lane="418#0_0" parking="true" endPos="50.15" until="498"/>
	</vehicle>
	<vehicle id="536" type="RSU" depart="0" departPos="92.42" color="255,0,0">
		<route edges="468#0"/>
		<stop lane="468#0_0" parking="true" endPos="92.42" until="498"/>
	</vehicle>
	<vehicle id="537" type="RSU" depart="0" departPos="98.18" color="255,0,0">
		<route edges="566#2"/>
		<stop lane="566#2_0" parking="true" endPos="98.18" until="498"/>
	</vehicle>
	<vehicle id="538" type="RSU" depart="0" departPos="323.07" color="255,0,0">
		<route edges="579"/>
		<stop lane="579_0" parking="true" endPos="323.07" until="498"/>
	</vehicle>
	<vehicle id="539" type="RSU" depart="0" departPos="246.63" color="255,0,0">
		<route edges="305"/>
		<stop lane="305_0" parking="true" endPos="246.63" until="498"/>
	</vehicle>
	<vehicle id="540" type="RSU" depart="0" departPos="194.43" color="255,0,0">
		<route edges="47"/>
		<stop lane="47_0" parking="true" endPos="194.43" until="498"/>
	</vehicle>
	<vehicle id="541" type="RSU" depart="0" departPos="74.38" color="255,0,0">
		<route edges="496#1"/>
		<stop lane="496#1_0" parking="true" endPos="74.38" until="498"/>
	</vehicle>
	<vehicle id="542" type="RSU" depart="0" departPos="3922.32" color="255,0,0">
		<route edges="41"/>
		<stop lane="41_0" parking="true" endPos="3922.32" until="498"/>
	</vehicle>
	<vehicle id="543" type="RSU" depart="0" departPos="45.41" color="255,0,0">
		<route edges="402"/>
		<stop lane="402_0" parking="true" endPos="45.41" until="498"/>
	</vehicle>
	<vehicle id="544" type="RSU" depart="0" departPos="390.02" color="255,0,0">
		<route edges="591#2"/>
		<stop lane="591#2_0" parking="true" endPos="390.02" until="498"/>
	</vehicle>
	<vehicle id="545" type="RSU" depart="0" departPos="78.96" color="255,0,0">
		<route edges="356#1"/>
		<stop lane="356#1_0" parking="true" endPos="78.96" until="498"/>
	</vehicle>
	<vehicle id="546" type="RSU" depart="0" departPos="80.25" color="255,0,0">
		<route edges="540#0"/>
		<stop lane="540#0_0" parking="true" endPos="80.25" until="498"/>
	</vehicle>
	<vehicle id="547" type="RSU" depart="0" departPos="8.1" color="255,0,0">
		<route edges="619#0"/>
		<stop lane="619#0_0" parking="true" endPos="8.1" until="498"/>
	</vehicle>
	<vehicle id="548" type="RSU" depart="0" departPos="29.31" color="255,0,0">
		<route edges="668"/>
		<stop lane="668_0" parking="true" endPos="29.31" until="498"/>
	</vehicle>
	<vehicle id="549" type="RSU" depart="0" departPos="242.89" color="255,0,0">
		<route edges="498#0"/>
		<stop lane="498#0_0" parking="true" endPos="242.89" until="498"/>
	</vehicle>
	<vehicle id="550" type="RSU" depart="0" departPos="221.62" color="255,0,0">
		<route edges="573"/>
		<stop lane="573_0" parking="true" endPos="221.62" until="498"/>
	</vehicle>
	<vehicle id="551" type="RSU" depart="0" departPos="92.14" color="255,0,0">
		<route edges="442#1"/>
		<stop lane="442#1_0" parking="true" endPos="92.14" until="498"/>
	</vehicle>
	<vehicle id="552" type="RSU" depart="0" departPos="44.71" color="255,0,0">
		<route edges="97"/>
		<stop lane="97_0" parking="true" endPos="44.71" until="498"/>
	</vehicle>
	<vehicle id="553" type="RSU" depart="0" departPos="356.5" color="255,0,0">
		<route edges="-25"/>
		<stop lane="-25_0" parking="true" endPos="356.5" until="498"/>
	</vehicle>
	<vehicle id="554" type="RSU" depart="0" departPos="168.66" color="255,0,0">
		<route edges="558#1"/>
		<stop lane="558#1_0" parking="true" endPos="168.66" until="498"/>
	</vehicle>
	<vehicle id="555" type="RSU" depart="0" departPos="32.79" color="255,0,0">
		<route edges="413#0"/>
		<stop lane="413#0_0" parking="true" endPos="32.79" until="498"/>
	</vehicle>
	<vehicle id="556" type="RSU" depart="0" departPos="97.64" color="255,0,0">
		<route edges="559"/>
		<stop lane="559_0" parking="true" endPos="97.64" until="498"/>
	</vehicle>
	<vehicle id="557" type="RSU" depart="0" departPos="274.06" color="255,0,0">
		<route edges="550#0"/>
		<stop lane="550#0_0" parking="true" endPos="274.06" until="498"/>
	</vehicle>
	<vehicle id="558" type="RSU" depart="0" departPos="345.84" color="255,0,0">
		<route edges="428"/>
		<stop lane="428_0" parking="true" endPos="345.84" until="498"/>
	</vehicle>
	<vehicle id="559" type="RSU" depart="0" departPos="133.57" color="255,0,0">
		<route edges="566#0"/>
		<stop lane="566#0_0" parking="true" endPos="133.57" until="498"/>
	</vehicle>
	<vehicle id="560" type="RSU" depart="0" departPos="114.21" color="255,0,0">
		<route edges="485#1"/>
		<stop lane="485#1_0" parking="true" endPos="114.21" until="498"/>
	</vehicle>
	<vehicle id="561" type="RSU" depart="0" departPos="87.77" color="255,0,0">
		<route edges="-65#0"/>
		<stop lane="-65#0_0" parking="true" endPos="87.77" until="498"/>
	</vehicle>
	<vehicle id="562" type="RSU" depart="0" departPos="51.42" color="255,0,0">
		<route edges="406#0"/>
		<stop lane="406#0_0" parking="true" endPos="51.42" until="498"/>
	</vehicle>
	<vehicle id="563" type="RSU" depart="0" departPos="933.77" color="255,0,0">
		<route edges="352"/>
		<stop lane="352_0" parking="true" endPos="933.77" until="498"/>
	</vehicle>
	<vehicle id="564" type="RSU" depart="0" departPos="14.42" color="255,0,0">
		<route edges="467#1"/>
		<stop lane="467#1_0" parking="true" endPos="14.42" until="498"/>
	</vehicle>
	<vehicle id="565" type="RSU" depart="0" departPos="28.56" color="255,0,0">
		<route edges="670#0"/>
		<stop lane="670#0_0" parking="true" endPos="28.56" until="498"/>
	</vehicle>
	<vehicle id="566" type="RSU" depart="0" departPos="6162.89" color="255,0,0">
		<route edges="102#1"/>
		<stop lane="102#1_0" parking="true" endPos="6162.89" until="498"/>
	</vehicle>