<additional>
	<vType id="RSU" color="255,0,0" guiShape="bus"/>

	<vehicle id="500" type="RSU" depart="0" departPos="322.02" color="255,0,0">
		<route edges="-41#0"/>
		<stop lane="-41#0_0" parking="true" endPos="322.02" until="499"/>
	</vehicle>
	<vehicle id="501" type="RSU" depart="0" departPos="88.68" color="255,0,0">
		<route edges="52#6"/>
		<stop lane="52#6_0" parking="true" endPos="88.68" until="499"/>
	</vehicle>
	<vehicle id="502" type="RSU" depart="0" departPos="68.62" color="255,0,0">
		<route edges="-18"/>
		<stop lane="-18_0" parking="true" endPos="68.62" until="499"/>
	</vehicle>
	<vehicle id="503" type="RSU" depart="0" departPos="279.67" color="255,0,0">
		<route edges="8#8"/>
		<stop lane="8#8_0" parking="true" endPos="279.67" until="499"/>
	</vehicle>
	<vehicle id="504" type="RSU" depart="0" departPos="103.43" color="255,0,0">
		<route edges="-27#1"/>
		<stop lane="-27#1_0" parking="true" endPos="103.43" until="499"/>
	</vehicle>
	<vehicle id="505" type="RSU" depart="0" departPos="117.57" color="255,0,0">
		<route edges="-161#2"/>
		<stop lane="-161#2_0" parking="true" endPos="117.57" until="499"/>
	</vehicle>
	<vehicle id="506" type="RSU" depart="0" departPos="84.79" color="255,0,0">
		<route edges="155#0"/>
		<stop lane="155#0_0" parking="true" endPos="84.79" until="499"/>
	</vehicle>
	<vehicle id="507" type="RSU" depart="0" departPos="202.53" color="255,0,0">
		<route edges="-53"/>
		<stop lane="-53_0" parking="true" endPos="202.53" until="499"/>
	</vehicle>
	<vehicle id="508" type="RSU" depart="0" departPos="180.01" color="255,0,0">
		<route edges="-10"/>
		<stop lane="-10_0" parking="true" endPos="180.01" until="499"/>
	</vehicle>
	<vehicle id="509" type="RSU" depart="0" departPos="2976.89" color="255,0,0">
		<route edges="20#7"/>
		<stop lane="20#7_0" parking="true" endPos="2976.89" until="499"/>
	</vehicle>
	<vehicle id="510" type="RSU" depart="0" departPos="73.04" color="255,0,0">
		<route edges="-48#1"/>
		<stop lane="-48#1_0" parking="true" endPos="73.04" until="499"/>
	</vehicle>
	<vehicle id="511" type="RSU" depart="0" departPos="260.11" color="255,0,0">
		<route edges="-43"/>
		<stop lane="-43_0" parking="true" endPos="260.11" until="499"/>
	</vehicle>
	<vehicle id="512" type="RSU" depart="0" departPos="116.16" color="255,0,0">
		<route edges="-55"/>
		<stop lane="-55_0" parking="true" endPos="116.16" until="499"/>
	</vehicle>
	<vehicle id="513" type="RSU" depart="0" departPos="44.84" color="255,0,0">
		<route edges="104#3"/>
		<stop lane="104#3_0" parking="true" endPos="44.84" until="499"/>
	</vehicle>
	<vehicle id="514" type="RSU" depart="0" departPos="210.62" color="255,0,0">
		<route edges="-51#0"/>
		<stop lane="-51#0_0" parking="true" endPos="210.62" until="499"/>
	</vehicle>
	<vehicle id="515" type="RSU" depart="0" departPos="117.15" color="255,0,0">
		<route edges="-27#3"/>
		<stop lane="-27#3_0" parking="true" endPos="117.15" until="499"/>
	</vehicle>
	<vehicle id="516" type="RSU" depart="0" departPos="185.51" color="255,0,0">
		<route edges="52#8"/>
		<stop lane="52#8_0" parking="true" endPos="185.51" until="499"/>
	</vehicle>
	<vehicle id="517" type="RSU" depart="0" departPos="55.93" color="255,0,0">
		<route edges="117#1"/>
		<stop lane="117#1_0" parking="true" endPos="55.93" until="499"/>
	</vehicle>
	<vehicle id="518" type="RSU" depart="0" departPos="35.14" color="255,0,0">
		<route edges="-48#3"/>
		<stop lane="-48#3_0" parking="true" endPos="35.14" until="499"/>
	</vehicle>
	<vehicle id="519" type="RSU" depart="0" departPos="227.2" color="255,0,0">
		<route edges="-492#1"/>
		<stop lane="-492#1_0" parking="true" endPos="227.2" until="499"/>
	</vehicle>
	<vehicle id="520" type="RSU" depart="0" departPos="28.14" color="255,0,0">
		<route edges="128#2"/>
		<stop lane="128#2_0" parking="true" endPos="28.14" until="499"/>
	</vehicle>
	<vehicle id="521" type="RSU" depart="0" departPos="52.65" color="255,0,0">
		<route edges="138"/>
		<stop lane="138_0" parking="true" endPos="52.65" until="499"/>
	</vehicle>
	<vehicle id="522" type="RSU" depart="0" departPos="670.5" color="255,0,0">
		<route edges="171#2"/>
		<stop lane="171#2_0" parking="true" endPos="670.5" until="499"/>
	</vehicle>
	<vehicle id="523" type="RSU" depart="0" departPos="179.15" color="255,0,0">
		<route edges="59"/>
		<stop lane="59_0" parking="true" endPos="179.15" until="499"/>
	</vehicle>
	<vehicle id="524" type="RSU" depart="0" departPos="46.85" color="255,0,0">
		<route edges="501#0"/>
		<stop lane="501#0_0" parking="true" endPos="46.85" until="499"/>
	</vehicle>
	<vehicle id="525" type="RSU" depart="0" departPos="115.73" color="255,0,0">
		<route edges="-14#4"/>
		<stop lane="-14#4_0" parking="true" endPos="115.73" until="499"/>
	</vehicle>
	<vehicle id="526" type="RSU" depart="0" departPos="29.12" color="255,0,0">
		<route edges="166#1"/>
		<stop lane="166#1_0" parking="true" endPos="29.12" until="499"/>
	</vehicle>
	<vehicle id="527" type="RSU" depart="0" departPos="39.09" color="255,0,0">
		<route edges="-146"/>
		<stop lane="-146_0" parking="true" endPos="39.09" until="499"/>
	</vehicle>
	<vehicle id="528" type="RSU" depart="0" departPos="215.83" color="255,0,0">
		<route edges="118#1"/>
		<stop lane="118#1_0" parking="true" endPos="215.83" until="499"/>
	</vehicle>
	<vehicle id="529" type="RSU" depart="0" departPos="202.53" color="255,0,0">
		<route edges="53"/>
		<stop lane="53_0" parking="true" endPos="202.53" until="499"/>
	</vehicle>
	<vehicle id="530" type="RSU" depart="0" departPos="111.08" color="255,0,0">
		<route edges="-14#1"/>
		<stop lane="-14#1_0" parking="true" endPos="111.08" until="499"/>
	</vehicle>
	<vehicle id="531" type="RSU" depart="0" departPos="57.87" color="255,0,0">
		<route edges="-25#0"/>
		<stop lane="-25#0_0" parking="true" endPos="57.87" until="499"/>
	</vehicle>
	<vehicle id="532" type="RSU" depart="0" departPos="18.69" color="255,0,0">
		<route edges="-151#1"/>
		<stop lane="-151#1_0" parking="true" endPos="18.69" until="499"/>
	</vehicle>
	<vehicle id="533" type="RSU" depart="0" departPos="127.2" color="255,0,0">
		<route edges="57#1"/>
		<stop lane="57#1_0" parking="true" endPos="127.2" until="499"/>
	</vehicle>
	<vehicle id="534" type="RSU" depart="0" departPos="106.67" color="255,0,0">
		<route edges="34#0"/>
		<stop lane="34#0_0" parking="true" endPos="106.67" until="499"/>
	</vehicle>
	<vehicle id="535" type="RSU" depart="0" departPos="573.93" color="255,0,0">
		<route edges="24#2"/>
		<stop lane="24#2_0" parking="true" endPos="573.93" until="499"/>
	</vehicle>
	<vehicle id="536" type="RSU" depart="0" departPos="167.01" color="255,0,0">
		<route edges="35#1"/>
		<stop lane="35#1_0" parking="true" endPos="167.01" until="499"/>
	</vehicle>
	<vehicle id="537" type="RSU" depart="0" departPos="40.5" color="255,0,0">
		<route edges="-56#1"/>
		<stop lane="-56#1_0" parking="true" endPos="40.5" until="499"/>
	</vehicle>
	<vehicle id="538" type="RSU" depart="0" departPos="222.0" color="255,0,0">
		<route edges="88#1"/>
		<stop lane="88#1_0" parking="true" endPos="222.0" until="499"/>
	</vehicle>
	<vehicle id="539" type="RSU" depart="0" departPos="268.83" color="255,0,0">
		<route edges="-88#6"/>
		<stop lane="-88#6_0" parking="true" endPos="268.83" until="499"/>
	</vehicle>
	<vehicle id="540" type="RSU" depart="0" departPos="155.47" color="255,0,0">
		<route edges="-161#0"/>
		<stop lane="-161#0_0" parking="true" endPos="155.47" until="499"/>
	</vehicle>
	<vehicle id="541" type="RSU" depart="0" departPos="1.17" color="255,0,0">
		<route edges="21#5"/>
		<stop lane="21#5_0" parking="true" endPos="1.17" until="499"/>
	</vehicle>
	<vehicle id="542" type="RSU" depart="0" departPos="205.84" color="255,0,0">
		<route edges="484#1"/>
		<stop lane="484#1_0" parking="true" endPos="205.84" until="499"/>
	</vehicle>
	<vehicle id="543" type="RSU" depart="0" departPos="64.42" color="255,0,0">
		<route edges="169#8"/>
		<stop lane="169#8_0" parking="true" endPos="64.42" until="499"/>
	</vehicle>
	<vehicle id="544" type="RSU" depart="0" departPos="60.8" color="255,0,0">
		<route edges="22#9"/>
		<stop lane="22#9_0" parking="true" endPos="60.8" until="499"/>
	</vehicle>
	<vehicle id="545" type="RSU" depart="0" departPos="139.48" color="255,0,0">
		<route edges="621"/>
		<stop lane="621_0" parking="true" endPos="139.48" until="499"/>
	</vehicle>
	<vehicle id="546" type="RSU" depart="0" departPos="46.76" color="255,0,0">
		<route edges="94#2"/>
		<stop lane="94#2_0" parking="true" endPos="46.76" until="499"/>
	</vehicle>
	<vehicle id="547" type="RSU" depart="0" departPos="23.83" color="255,0,0">
		<route edges="-128#1"/>
		<stop lane="-128#1_0" parking="true" endPos="23.83" until="499"/>
	</vehicle>
	<vehicle id="548" type="RSU" depart="0" departPos="112.7" color="255,0,0">
		<route edges="36#1"/>
		<stop lane="36#1_0" parking="true" endPos="112.7" until="499"/>
	</vehicle>
	<vehicle id="549" type="RSU" depart="0" departPos="284.12" color="255,0,0">
		<route edges="20#3"/>
		<stop lane="20#3_0" parking="true" endPos="284.12" until="499"/>
	</vehicle>
	<vehicle id="550" type="RSU" depart="0" departPos="250.51" color="255,0,0">
		<route edges="28#0"/>
		<stop lane="28#0_0" parking="true" endPos="250.51" until="499"/>
	</vehicle>
	<vehicle id="551" type="RSU" depart="0" departPos="112.7" color="255,0,0">
		<route edges="-36#1"/>
		<stop lane="-36#1_0" parking="true" endPos="112.7" until="499"/>
	</vehicle>
	<vehicle id="552" type="RSU" depart="0" departPos="134.84" color="255,0,0">
		<route edges="1#12"/>
		<stop lane="1#12_0" parking="true" endPos="134.84" until="499"/>
	</vehicle>
	<vehicle id="553" type="RSU" depart="0" departPos="7.06" color="255,0,0">
		<route edges="122#3"/>
		<stop lane="122#3_0" parking="true" endPos="7.06" until="499"/>
	</vehicle>
	<vehicle id="554" type="RSU" depart="0" departPos="222.0" color="255,0,0">
		<route edges="-88#1"/>
		<stop lane="-88#1_0" parking="true" endPos="222.0" until="499"/>
	</vehicle>
	<vehicle id="555" type="RSU" depart="0" departPos="26.07" color="255,0,0">
		<route edges="139#1"/>
		<stop lane="139#1_0" parking="true" endPos="26.07" until="499"/>
	</vehicle>
	<vehicle id="556" type="RSU" depart="0" departPos="748.82" color="255,0,0">
		<route edges="21#9"/>
		<stop lane="21#9_0" parking="true" endPos="748.82" until="499"/>
	</vehicle>
	<vehicle id="557" type="RSU" depart="0" departPos="124.66" color="255,0,0">
		<route edges="20#1"/>
		<stop lane="20#1_0" parking="true" endPos="124.66" until="499"/>
	</vehicle>
	<vehicle id="558" type="RSU" depart="0" departPos="128.59" color="255,0,0">
		<route edges="-156#1"/>
		<stop lane="-156#1_0" parking="true" endPos="128.59" until="499"/>
	</vehicle>
	<vehicle id="559" type="RSU" depart="0" departPos="142.81" color="255,0,0">
		<route edges="1#1"/>
		<stop lane="1#1_0" parking="true" endPos="142.81" until="499"/>
	</vehicle>
	<vehicle id="560" type="RSU" depart="0" departPos="63.92" color="255,0,0">
		<route edges="3#4"/>
		<stop lane="3#4_0" parking="true" endPos="63.92" until="499"/>
	</vehicle>
	<vehicle id="561" type="RSU" depart="0" departPos="95.37" color="255,0,0">
		<route edges="91"/>
		<stop lane="91_0" parking="true" endPos="95.37" until="499"/>
	</vehicle>
	<vehicle id="562" type="RSU" depart="0" departPos="3026.0" color="255,0,0">
		<route edges="19#0"/>
		<stop lane="19#0_0" parking="true" endPos="3026.0" until="499"/>
	</vehicle>
	<vehicle id="563" type="RSU" depart="0" departPos="16.29" color="255,0,0">
		<route edges="143#4"/>
		<stop lane="143#4_0" parking="true" endPos="16.29" until="499"/>
	</vehicle>
	<vehicle id="564" type="RSU" depart="0" departPos="78.97" color="255,0,0">
		<route edges="52#5"/>
		<stop lane="52#5_0" parking="true" endPos="78.97" until="499"/>
	</vehicle>
	<vehicle id="565" type="RSU" depart="0" departPos="95.44" color="255,0,0">
		<route edges="52#0"/>
		<stop lane="52#0_0" parking="true" endPos="95.44" until="499"/>
	</vehicle>
	<vehicle id="566" type="RSU" depart="0" departPos="97.03" color="255,0,0">
		<route edges="-27#5"/>
		<stop lane="-27#5_0" parking="true" endPos="97.03" until="499"/>
	</vehicle>
	<vehicle id="567" type="RSU" depart="0" departPos="227.49" color="255,0,0">
		<route edges="173#1"/>
		<stop lane="173#1_0" parking="true" endPos="227.49" until="499"/>
	</vehicle>
	<vehicle id="568" type="RSU" depart="0" departPos="63.63" color="255,0,0">
		<route edges="99"/>
		<stop lane="99_0" parking="true" endPos="63.63" until="499"/>
	</vehicle>
	<vehicle id="569" type="RSU" depart="0" departPos="270.5" color="255,0,0">
		<route edges="-492#2"/>
		<stop lane="-492#2_0" parking="true" endPos="270.5" until="499"/>
	</vehicle>
	<vehicle id="570" type="RSU" depart="0" departPos="50.99" color="255,0,0">
		<route edges="9#7"/>
		<stop lane="9#7_0" parking="true" endPos="50.99" until="499"/>
	</vehicle>
	<vehicle id="571" type="RSU" depart="0" departPos="118.52" color="255,0,0">
		<route edges="3#2"/>
		<stop lane="3#2_0" parking="true" endPos="118.52" until="499"/>
	</vehicle>
	<vehicle id="572" type="RSU" depart="0" departPos="67.48" color="255,0,0">
		<route edges="97"/>
		<stop lane="97_0" parking="true" endPos="67.48" until="499"/>
	</vehicle>
	<vehicle id="573" type="RSU" depart="0" departPos="145.15" color="255,0,0">
		<route edges="1#3"/>
		<stop lane="1#3_0" parking="true" endPos="145.15" until="499"/>
	</vehicle>
	<vehicle id="574" type="RSU" depart="0" departPos="269.82" color="255,0,0">
		<route edges="41#1"/>
		<stop lane="41#1_0" parking="true" endPos="269.82" until="499"/>
	</vehicle>
	<vehicle id="575" type="RSU" depart="0" departPos="70.87" color="255,0,0">
		<route edges="52#7"/>
		<stop lane="52#7_0" parking="true" endPos="70.87" until="499"/>
	</vehicle>
	<vehicle id="576" type="RSU" depart="0" departPos="451.66" color="255,0,0">
		<route edges="107#0"/>
		<stop lane="107#0_0" parking="true" endPos="451.66" until="499"/>
	</vehicle>
	<vehicle id="577" type="RSU" depart="0" departPos="430.18" color="255,0,0">
		<route edges="7#0"/>
		<stop lane="7#0_0" parking="true" endPos="430.18" until="499"/>
	</vehicle>
	<vehicle id="578" type="RSU" depart="0" departPos="47.59" color="255,0,0">
		<route edges="-14#5"/>
		<stop lane="-14#5_0" parking="true" endPos="47.59" until="499"/>
	</vehicle>
	<vehicle id="579" type="RSU" depart="0" departPos="55.18" color="255,0,0">
		<route edges="-141"/>
		<stop lane="-141_0" parking="true" endPos="55.18" until="499"/>
	</vehicle>
	<vehicle id="580" type="RSU" depart="0" departPos="198.18" color="255,0,0">
		<route edges="56#2"/>
		<stop lane="56#2_0" parking="true" endPos="198.18" until="499"/>
	</vehicle>
	<vehicle id="581" type="RSU" depart="0" departPos="81.88" color="255,0,0">
		<route edges="52#1"/>
		<stop lane="52#1_0" parking="true" endPos="81.88" until="499"/>
	</vehicle>
	<vehicle id="582" type="RSU" depart="0" departPos="232.31" color="255,0,0">
		<route edges="52#3"/>
		<stop lane="52#3_0" parking="true" endPos="232.31" until="499"/>
	</vehicle>
	<vehicle id="583" type="RSU" depart="0" departPos="258.19" color="255,0,0">
		<route edges="169#2"/>
		<stop lane="169#2_0" parking="true" endPos="258.19" until="499"/>
	</vehicle>
	<vehicle id="584" type="RSU" depart="0" departPos="50.07" color="255,0,0">
		<route edges="-103#1"/>
		<stop lane="-103#1_0" parking="true" endPos="50.07" until="499"/>
	</vehicle>
	<vehicle id="585" type="RSU" depart="0" departPos="102.7" color="255,0,0">
		<route edges="34#2"/>
		<stop lane="34#2_0" parking="true" endPos="102.7" until="499"/>
	</vehicle>
	<vehicle id="586" type="RSU" depart="0" departPos="205.95" color="255,0,0">
		<route edges="3#0"/>
		<stop lane="3#0_0" parking="true" endPos="205.95" until="499"/>
	</vehicle>
	<vehicle id="587" type="RSU" depart="0" departPos="1164.07" color="255,0,0">
		<route edges="24#4"/>
		<stop lane="24#4_0" parking="true" endPos="1164.07" until="499"/>
	</vehicle>
	<vehicle id="588" type="RSU" depart="0" departPos="186.56" color="255,0,0">
		<route edges="168#1"/>
		<stop lane="168#1_0" parking="true" endPos="186.56" until="499"/>
	</vehicle>
	<vehicle id="589" type="RSU" depart="0" departPos="4.0" color="255,0,0">
		<route edges="21#4"/>
		<stop lane="21#4_0" parking="true" endPos="4.0" until="499"/>
	</vehicle>
	<vehicle id="590" type="RSU" depart="0" departPos="57.2" color="255,0,0">
		<route edges="477"/>
		<stop lane="477_0" parking="true" endPos="57.2" until="499"/>
	</vehicle>
	<vehicle id="591" type="RSU" depart="0" departPos="14.38" color="255,0,0">
		<route edges="143#2"/>
		<stop lane="143#2_0" parking="true" endPos="14.38" until="499"/>
	</vehicle>
	<vehicle id="592" type="RSU" depart="0" departPos="270.42" color="255,0,0">
		<route edges="567"/>
		<stop lane="567_0" parking="true" endPos="270.42" until="499"/>
	</vehicle>
	<vehicle id="593" type="RSU" depart="0" departPos="271.1" color="255,0,0">
		<route edges="500#0"/>
		<stop lane="500#0_0" parking="true" endPos="271.1" until="499"/>
	</vehicle>
	<vehicle id="594" type="RSU" depart="0" departPos="116.1" color="255,0,0">
		<route edges="31#1"/>
		<stop lane="31#1_0" parking="true" endPos="116.1" until="499"/>
	</vehicle>
	<vehicle id="595" type="RSU" depart="0" departPos="39.8" color="255,0,0">
		<route edges="-187#0"/>
		<stop lane="-187#0_0" parking="true" endPos="39.8" until="499"/>
	</vehicle>
	<vehicle id="596" type="RSU" depart="0" departPos="70.52" color="255,0,0">
		<route edges="-140#0"/>
		<stop lane="-140#0_0" parking="true" endPos="70.52" until="499"/>
	</vehicle>
	<vehicle id="597" type="RSU" depart="0" departPos="116.32" color="255,0,0">
		<route edges="32#1"/>
		<stop lane="32#1_0" parking="true" endPos="116.32" until="499"/>
	</vehicle>
	<vehicle id="598" type="RSU" depart="0" departPos="18.65" color="255,0,0">
		<route edges="190#1"/>
		<stop lane="190#1_0" parking="true" endPos="18.65" until="499"/>
	</vehicle>
	<vehicle id="599" type="RSU" depart="0" departPos="47.32" color="255,0,0">
		<route edges="143#0"/>
		<stop lane="143#0_0" parking="true" endPos="47.32" until="499"/>
	</vehicle>
	<vehicle id="600" type="RSU" depart="0" departPos="96.91" color="255,0,0">
		<route edges="22#8"/>
		<stop lane="22#8_0" parking="true" endPos="96.91" until="499"/>
	</vehicle>
	<vehicle id="601" type="RSU" depart="0" departPos="125.34" color="255,0,0">
		<route edges="-88#3"/>
		<stop lane="-88#3_0" parking="true" endPos="125.34" until="499"/>
	</vehicle>
	<vehicle id="602" type="RSU" depart="0" departPos="120.74" color="255,0,0">
		<route edges="-88#4"/>
		<stop lane="-88#4_0" parking="true" endPos="120.74" until="499"/>
	</vehicle>
	<vehicle id="603" type="RSU" depart="0" departPos="270.66" color="255,0,0">
		<route edges="173#0"/>
		<stop lane="173#0_0" parking="true" endPos="270.66" until="499"/>
	</vehicle>
	<vehicle id="604" type="RSU" depart="0" departPos="188.67" color="255,0,0">
		<route edges="22#6"/>
		<stop lane="22#6_0" parking="true" endPos="188.67" until="499"/>
	</vehicle>
	<vehicle id="605" type="RSU" depart="0" departPos="54.5" color="255,0,0">
		<route edges="-51#1"/>
		<stop lane="-51#1_0" parking="true" endPos="54.5" until="499"/>
	</vehicle>
	<vehicle id="606" type="RSU" depart="0" departPos="72.58" color="255,0,0">
		<route edges="139#0"/>
		<stop lane="139#0_0" parking="true" endPos="72.58" until="499"/>
	</vehicle>
	<vehicle id="607" type="RSU" depart="0" departPos="57.76" color="255,0,0">
		<route edges="8#6"/>
		<stop lane="8#6_0" parking="true" endPos="57.76" until="499"/>
	</vehicle>
	<vehicle id="608" type="RSU" depart="0" departPos="221.91" color="255,0,0">
		<route edges="501#1"/>
		<stop lane="501#1_0" parking="true" endPos="221.91" until="499"/>
	</vehicle>
	<vehicle id="609" type="RSU" depart="0" departPos="42.12" color="255,0,0">
		<route edges="-128#0"/>
		<stop lane="-128#0_0" parking="true" endPos="42.12" until="499"/>
	</vehicle>
	<vehicle id="610" type="RSU" depart="0" departPos="747.93" color="255,0,0">
		<route edges="22#0"/>
		<stop lane="22#0_0" parking="true" endPos="747.93" until="499"/>
	</vehicle>
	<vehicle id="611" type="RSU" depart="0" departPos="275.7" color="255,0,0">
		<route edges="-42"/>
		<stop lane="-42_0" parking="true" endPos="275.7" until="499"/>
	</vehicle>
	<vehicle id="612" type="RSU" depart="0" departPos="277.32" color="255,0,0">
		<route edges="22#2"/>
		<stop lane="22#2_0" parking="true" endPos="277.32" until="499"/>
	</vehicle>
	<vehicle id="613" type="RSU" depart="0" departPos="116.7" color="255,0,0">
		<route edges="33#1"/>
		<stop lane="33#1_0" parking="true" endPos="116.7" until="499"/>
	</vehicle>
	<vehicle id="614" type="RSU" depart="0" departPos="87.55" color="255,0,0">
		<route edges="-156#0"/>
		<stop lane="-156#0_0" parking="true" endPos="87.55" until="499"/>
	</vehicle>
	<vehicle id="615" type="RSU" depart="0" departPos="187.9" color="255,0,0">
		<route edges="172#5"/>
		<stop lane="172#5_0" parking="true" endPos="187.9" until="499"/>
	</vehicle>
	<vehicle id="616" type="RSU" depart="0" departPos="28.14" color="255,0,0">
		<route edges="-128#2"/>
		<stop lane="-128#2_0" parking="true" endPos="28.14" until="499"/>
	</vehicle>
	<vehicle id="617" type="RSU" depart="0" departPos="43.39" color="255,0,0">
		<route edges="38"/>
		<stop lane="38_0" parking="true" endPos="43.39" until="499"/>
	</vehicle>
	<vehicle id="618" type="RSU" depart="0" departPos="17.31" color="255,0,0">
		<route edges="110#0"/>
		<stop lane="110#0_0" parking="true" endPos="17.31" until="499"/>
	</vehicle>
	<vehicle id="619" type="RSU" depart="0" departPos="94.65" color="255,0,0">
		<route edges="92"/>
		<stop lane="92_0" parking="true" endPos="94.65" until="499"/>
	</vehicle>
	<vehicle id="620" type="RSU" depart="0" departPos="68.33" color="255,0,0">
		<route edges="3#7"/>
		<stop lane="3#7_0" parking="true" endPos="68.33" until="499"/>
	</vehicle>
	<vehicle id="621" type="RSU" depart="0" departPos="126.87" color="255,0,0">
		<route edges="8#1"/>
		<stop lane="8#1_0" parking="true" endPos="126.87" until="499"/>
	</vehicle>
	<vehicle id="622" type="RSU" depart="0" departPos="42.83" color="255,0,0">
		<route edges="198"/>
		<stop lane="198_0" parking="true" endPos="42.83" until="499"/>
	</vehicle>
	<vehicle id="623" type="RSU" depart="0" departPos="107.28" color="255,0,0">
		<route edges="8#4"/>
		<stop lane="8#4_0" parking="true" endPos="107.28" until="499"/>
	</vehicle>
	<vehicle id="624" type="RSU" depart="0" departPos="744.24" color="255,0,0">
		<route edges="168#8"/>
		<stop lane="168#8_0" parking="true" endPos="744.24" until="499"/>
	</vehicle>
	<vehicle id="625" type="RSU" depart="0" departPos="34.2" color="255,0,0">
		<route edges="164"/>
		<stop lane="164_0" parking="true" endPos="34.2" until="499"/>
	</vehicle>
	<vehicle id="626" type="RSU" depart="0" departPos="43.21" color="255,0,0">
		<route edges="169#5"/>
		<stop lane="169#5_0" parking="true" endPos="43.21" until="499"/>
	</vehicle>
	<vehicle id="627" type="RSU" depart="0" departPos="270.5" color="255,0,0">
		<route edges="174"/>
		<stop lane="174_0" parking="true" endPos="270.5" until="499"/>
	</vehicle>
	<vehicle id="628" type="RSU" depart="0" departPos="36.61" color="255,0,0">
		<route edges="165"/>
		<stop lane="165_0" parking="true" endPos="36.61" until="499"/>
	</vehicle>
	<vehicle id="629" type="RSU" depart="0" departPos="122.96" color="255,0,0">
		<route edges="-103#0"/>
		<stop lane="-103#0_0" parking="true" endPos="122.96" until="499"/>
	</vehicle>
	<vehicle id="630" type="RSU" depart="0" departPos="203.34" color="255,0,0">
		<route edges="2"/>
		<stop lane="2_0" parking="true" endPos="203.34" until="499"/>
	</vehicle>
	<vehicle id="631" type="RSU" depart="0" departPos="50.6" color="255,0,0">
		<route edges="3#3"/>
		<stop lane="3#3_0" parking="true" endPos="50.6" until="499"/>
	</vehicle>
	<vehicle id="632" type="RSU" depart="0" departPos="90.45" color="255,0,0">
		<route edges="34#1"/>
		<stop lane="34#1_0" parking="true" endPos="90.45" until="499"/>
	</vehicle>
	<vehicle id="633" type="RSU" depart="0" departPos="83.47" color="255,0,0">
		<route edges="-140#2"/>
		<stop lane="-140#2_0" parking="true" endPos="83.47" until="499"/>
	</vehicle>
	<vehicle id="634" type="RSU" depart="0" departPos="18.49" color="255,0,0">
		<route edges="153#1"/>
		<stop lane="153#1_0" parking="true" endPos="18.49" until="499"/>
	</vehicle>
	<vehicle id="635" type="RSU" depart="0" departPos="32.95" color="255,0,0">
		<route edges="-118#0"/>
		<stop lane="-118#0_0" parking="true" endPos="32.95" until="499"/>
	</vehicle>
	<vehicle id="636" type="RSU" depart="0" departPos="11.91" color="255,0,0">
		<route edges="482"/>
		<stop lane="482_0" parking="true" endPos="11.91" until="499"/>
	</vehicle>
	<vehicle id="637" type="RSU" depart="0" departPos="45.51" color="255,0,0">
		<route edges="104#1"/>
		<stop lane="104#1_0" parking="true" endPos="45.51" until="499"/>
	</vehicle>
	<vehicle id="638" type="RSU" depart="0" departPos="203.48" color="255,0,0">
		<route edges="9#0"/>
		<stop lane="9#0_0" parking="true" endPos="203.48" until="499"/>
	</vehicle>
	<vehicle id="639" type="RSU" depart="0" departPos="122.34" color="255,0,0">
		<route edges="22#7"/>
		<stop lane="22#7_0" parking="true" endPos="122.34" until="499"/>
	</vehicle>
	<vehicle id="640" type="RSU" depart="0" departPos="48.08" color="255,0,0">
		<route edges="-140#1"/>
		<stop lane="-140#1_0" parking="true" endPos="48.08" until="499"/>
	</vehicle>
	<vehicle id="641" type="RSU" depart="0" departPos="27.55" color="255,0,0">
		<route edges="143#3"/>
		<stop lane="143#3_0" parking="true" endPos="27.55" until="499"/>
	</vehicle>
	<vehicle id="642" type="RSU" depart="0" departPos="7.01" color="255,0,0">
		<route edges="24#3"/>
		<stop lane="24#3_0" parking="true" endPos="7.01" until="499"/>
	</vehicle>
	<vehicle id="643" type="RSU" depart="0" departPos="42.92" color="255,0,0">
		<route edges="153#2"/>
		<stop lane="153#2_0" parking="true" endPos="42.92" until="499"/>
	</vehicle>
	<vehicle id="644" type="RSU" depart="0" departPos="130.83" color="255,0,0">
		<route edges="8#7"/>
		<stop lane="8#7_0" parking="true" endPos="130.83" until="499"/>
	</vehicle>
	<vehicle id="645" type="RSU" depart="0" departPos="268.98" color="255,0,0">
		<route edges="-187#1"/>
		<stop lane="-187#1_0" parking="true" endPos="268.98" until="499"/>
	</vehicle>
	<vehicle id="646" type="RSU" depart="0" departPos="88.06" color="255,0,0">
		<route edges="52#2"/>
		<stop lane="52#2_0" parking="true" endPos="88.06" until="499"/>
	</vehicle>
	<vehicle id="647" type="RSU" depart="0" departPos="448.25" color="255,0,0">
		<route edges="170#2"/>
		<stop lane="170#2_0" parking="true" endPos="448.25" until="499"/>
	</vehicle>
	<vehicle id="648" type="RSU" depart="0" departPos="18.2" color="255,0,0">
		<route edges="143#1"/>
		<stop lane="143#1_0" parking="true" endPos="18.2" until="499"/>
	</vehicle>
	<vehicle id="649" type="RSU" depart="0" departPos="38.54" color="255,0,0">
		<route edges="168#3"/>
		<stop lane="168#3_0" parking="true" endPos="38.54" until="499"/>
	</vehicle>
	<vehicle id="650" type="RSU" depart="0" departPos="47.15" color="255,0,0">
		<route edges="135#0"/>
		<stop lane="135#0_0" parking="true" endPos="47.15" until="499"/>
	</vehicle>
	<vehicle id="651" type="RSU" depart="0" departPos="271.39" color="255,0,0">
		<route edges="19#3"/>
		<stop lane="19#3_0" parking="true" endPos="271.39" until="499"/>
	</vehicle>
	<vehicle id="652" type="RSU" depart="0" departPos="69.57" color="255,0,0">
		<route edges="1#14"/>
		<stop lane="1#14_0" parking="true" endPos="69.57" until="499"/>
	</vehicle>
	<vehicle id="653" type="RSU" depart="0" departPos="206.95" color="255,0,0">
		<route edges="22#3"/>
		<stop lane="22#3_0" parking="true" endPos="206.95" until="499"/>
	</vehicle>
	<vehicle id="654" type="RSU" depart="0" departPos="207.11" color="255,0,0">
		<route edges="488#0"/>
		<stop lane="488#0_0" parking="true" endPos="207.11" until="499"/>
	</vehicle>
	<vehicle id="655" type="RSU" depart="0" departPos="89.87" color="255,0,0">
		<route edges="-27#2"/>
		<stop lane="-27#2_0" parking="true" endPos="89.87" until="499"/>
	</vehicle>
	<vehicle id="656" type="RSU" depart="0" departPos="248.19" color="255,0,0">
		<route edges="6"/>
		<stop lane="6_0" parking="true" endPos="248.19" until="499"/>
	</vehicle>
	<vehicle id="657" type="RSU" depart="0" departPos="105.56" color="255,0,0">
		<route edges="155#1"/>
		<stop lane="155#1_0" parking="true" endPos="105.56" until="499"/>
	</vehicle>
	<vehicle id="658" type="RSU" depart="0" departPos="47.71" color="255,0,0">
		<route edges="-36#0"/>
		<stop lane="-36#0_0" parking="true" endPos="47.71" until="499"/>
	</vehicle>
	<vehicle id="659" type="RSU" depart="0" departPos="269.82" color="255,0,0">
		<route edges="-41#1"/>
		<stop lane="-41#1_0" parking="true" endPos="269.82" until="499"/>
	</vehicle>
	<vehicle id="660" type="RSU" depart="0" departPos="669.93" color="255,0,0">
		<route edges="172#10"/>
		<stop lane="172#10_0" parking="true" endPos="669.93" until="499"/>
	</vehicle>
	<vehicle id="661" type="RSU" depart="0" departPos="1163.29" color="255,0,0">
		<route edges="122#4"/>
		<stop lane="122#4_0" parking="true" endPos="1163.29" until="499"/>
	</vehicle>
	<vehicle id="662" type="RSU" depart="0" departPos="92.1" color="255,0,0">
		<route edges="177#1+178#0"/>
		<stop lane="177#1+178#0_0" parking="true" endPos="92.1" until="499"/>
	</vehicle>
	<vehicle id="663" type="RSU" depart="0" departPos="146.42" color="255,0,0">
		<route edges="-17"/>
		<stop lane="-17_0" parking="true" endPos="146.42" until="499"/>
	</vehicle>
	<vehicle id="664" type="RSU" depart="0" departPos="180.01" color="255,0,0">
		<route edges="10"/>
		<stop lane="10_0" parking="true" endPos="180.01" until="499"/>
	</vehicle>
	<vehicle id="665" type="RSU" depart="0" departPos="119.16" color="255,0,0">
		<route edges="4#1"/>
		<stop lane="4#1_0" parking="true" endPos="119.16" until="499"/>
	</vehicle>
	<vehicle id="666" type="RSU" depart="0" departPos="744.65" color="255,0,0">
		<route edges="169#0"/>