<additional>
	<vType id="RSU" color="255,0,0" guiShape="bus"/>

	<vehicle id="800" type="RSU" depart="0" departPos="84.29" color="255,0,0">
		<route edges="198#2"/>
		<stop lane="198#2_0" parking="true" endPos="84.29" until="659"/>
	</vehicle>
	<vehicle id="801" type="RSU" depart="0" departPos="94.97" color="255,0,0">
		<route edges="299#1"/>
		<stop lane="299#1_0" parking="true" endPos="94.97" until="659"/>
	</vehicle>
	<vehicle id="802" type="RSU" depart="0" departPos="270.12" color="255,0,0">
		<route edges="1#0"/>
		<stop lane="1#0_0" parking="true" endPos="270.12" until="659"/>
	</vehicle>
	<vehicle id="803" type="RSU" depart="0" departPos="266.18" color="255,0,0">
		<route edges="571#1"/>
		<stop lane="571#1_0" parking="true" endPos="266.18" until="659"/>
	</vehicle>
	<vehicle id="804" type="RSU" depart="0" departPos="24.04" color="255,0,0">
		<route edges="596#0"/>
		<stop lane="596#0_0" parking="true" endPos="24.04" until="659"/>
	</vehicle>
	<vehicle id="805" type="RSU" depart="0" departPos="146.81" color="255,0,0">
		<route edges="594#2"/>
		<stop lane="594#2_0" parking="true" endPos="146.81" until="659"/>
	</vehicle>
	<vehicle id="806" type="RSU" depart="0" departPos="47.08" color="255,0,0">
		<route edges="198#0"/>
		<stop lane="198#0_0" parking="true" endPos="47.08" until="659"/>
	</vehicle>
	<vehicle id="807" type="RSU" depart="0" departPos="506.8" color="255,0,0">
		<route edges="387"/>
		<stop lane="387_0" parking="true" endPos="506.8" until="659"/>
	</vehicle>
	<vehicle id="808" type="RSU" depart="0" departPos="105.03" color="255,0,0">
		<route edges="499"/>
		<stop lane="499_0" parking="true" endPos="105.03" until="659"/>
	</vehicle>
	<vehicle id="809" type="RSU" depart="0" departPos="286.87" color="255,0,0">
		<route edges="664#0"/>
		<stop lane="664#0_0" parking="true" endPos="286.87" until="659"/>
	</vehicle>
	<vehicle id="810" type="RSU" depart="0" departPos="37.89" color="255,0,0">
		<route edges="457#0"/>
		<stop lane="457#0_0" parking="true" endPos="37.89" until="659"/>
	</vehicle>
	<vehicle id="811" type="RSU" depart="0" departPos="71.41" color="255,0,0">
		<route edges="330"/>
		<stop lane="330_0" parking="true" endPos="71.41" until="659"/>
	</vehicle>
	<vehicle id="812" type="RSU" depart="0" departPos="223.63" color="255,0,0">
		<route edges="627"/>
		<stop lane="627_0" parking="true" endPos="223.63" until="659"/>
	</vehicle>
	<vehicle id="813" type="RSU" depart="0" departPos="266.94" color="255,0,0">
		<route edges="497"/>
		<stop lane="497_0" parking="true" endPos="266.94" until="659"/>
	</vehicle>
	<vehicle id="814" type="RSU" depart="0" departPos="702.1" color="255,0,0">
		<route edges="59"/>
		<stop lane="59_0" parking="true" endPos="702.1" until="659"/>
	</vehicle>
	<vehicle id="815" type="RSU" depart="0" departPos="269.66" color="255,0,0">
		<route edges="568"/>
		<stop lane="568_0" parking="true" endPos="269.66" until="659"/>
	</vehicle>
	<vehicle id="816" type="RSU" depart="0" departPos="82.65" color="255,0,0">
		<route edges="200#1"/>
		<stop lane="200#1_0" parking="true" endPos="82.65" until="659"/>
	</vehicle>
	<vehicle id="817" type="RSU" depart="0" departPos="27.22" color="255,0,0">
		<route edges="629"/>
		<stop lane="629_0" parking="true" endPos="27.22" until="659"/>
	</vehicle>
	<vehicle id="818" type="RSU" depart="0" departPos="29.96" color="255,0,0">
		<route edges="15#1"/>
		<stop lane="15#1_0" parking="true" endPos="29.96" until="659"/>
	</vehicle>
	<vehicle id="819" type="RSU" depart="0" departPos="285.1" color="255,0,0">
		<route edges="50"/>
		<stop lane="50_0" parking="true" endPos="285.1" until="659"/>
	</vehicle>
	<vehicle id="820" type="RSU" depart="0" departPos="69.89" color="255,0,0">
		<route edges="-96"/>
		<stop lane="-96_0" parking="true" endPos="69.89" until="659"/>
	</vehicle>
	<vehicle id="821" type="RSU" depart="0" departPos="49.83" color="255,0,0">
		<route edges="201#2"/>
		<stop lane="201#2_0" parking="true" endPos="49.83" until="659"/>
	</vehicle>
	<vehicle id="822" type="RSU" depart="0" departPos="166.26" color="255,0,0">
		<route edges="508#1"/>
		<stop lane="508#1_0" parking="true" endPos="166.26" until="659"/>
	</vehicle>
	<vehicle id="823" type="RSU" depart="0" departPos="21.52" color="255,0,0">
		<route edges="560"/>
		<stop lane="560_0" parking="true" endPos="21.52" until="659"/>
	</vehicle>
	<vehicle id="824" type="RSU" depart="0" departPos="246.63" color="255,0,0">
		<route edges="-305"/>
		<stop lane="-305_0" parking="true" endPos="246.63" until="659"/>
	</vehicle>
	<vehicle id="825" type="RSU" depart="0" departPos="239.16" color="255,0,0">
		<route edges="-378#1"/>
		<stop lane="-378#1_0" parking="true" endPos="239.16" until="659"/>
	</vehicle>
	<vehicle id="826" type="RSU" depart="0" departPos="6.21" color="255,0,0">
		<route edges="179"/>
		<stop lane="179_0" parking="true" endPos="6.21" until="659"/>
	</vehicle>
	<vehicle id="827" type="RSU" depart="0" departPos="42.44" color="255,0,0">
		<route edges="463#2"/>
		<stop lane="463#2_0" parking="true" endPos="42.44" until="659"/>
	</vehicle>
	<vehicle id="828" type="RSU" depart="0" departPos="182.38" color="255,0,0">
		<route edges="349"/>
		<stop lane="349_0" parking="true" endPos="182.38" until="659"/>
	</vehicle>
	<vehicle id="829" type="RSU" depart="0" departPos="311.57" color="255,0,0">
		<route edges="321#0"/>
		<stop lane="321#0_0" parking="true" endPos="311.57" until="659"/>
	</vehicle>
	<vehicle id="830" type="RSU" depart="0" departPos="63.92" color="255,0,0">
		<route edges="621"/>
		<stop lane="621_0" parking="true" endPos="63.92" until="659"/>
	</vehicle>
	<vehicle id="831" type="RSU" depart="0" departPos="127.12" color="255,0,0">
		<route edges="-307"/>
		<stop lane="-307_0" parking="true" endPos="127.12" until="659"/>
	</vehicle>
	<vehicle id="832" type="RSU" depart="0" departPos="193.37" color="255,0,0">
		<route edges="651"/>
		<stop lane="651_0" parking="true" endPos="193.37" until="659"/>
	</vehicle>
	<vehicle id="833" type="RSU" depart="0" departPos="49.76" color="255,0,0">
		<route edges="201#0"/>
		<stop lane="201#0_0" parking="true" endPos="49.76" until="659"/>
	</vehicle>
	<vehicle id="834" type="RSU" depart="0" departPos="59.0" color="255,0,0">
		<route edges="67#0"/>
		<stop lane="67#0_0" parking="true" endPos="59.0" until="659"/>
	</vehicle>
	<vehicle id="835" type="RSU" depart="0" departPos="384.9" color="255,0,0">
		<route edges="20"/>
		<stop lane="20_0" parking="true" endPos="384.9" until="659"/>
	</vehicle>
	<vehicle id="836" type="RSU" depart="0" departPos="126.98" color="255,0,0">
		<route edges="531"/>
		<stop lane="531_0" parking="true" endPos="126.98" until="659"/>
	</vehicle>
	<vehicle id="837" type="RSU" depart="0" departPos="150.08" color="255,0,0">
		<route edges="458"/>
		<stop lane="458_0" parking="true" endPos="150.08" until="659"/>
	</vehicle>
	<vehicle id="838" type="RSU" depart="0" departPos="21.29" color="255,0,0">
		<route edges="617"/>
		<stop lane="617_0" parking="true" endPos="21.29" until="659"/>
	</vehicle>
	<vehicle id="839" type="RSU" depart="0" departPos="16.86" color="255,0,0">
		<route edges="594#0"/>
		<stop lane="594#0_0" parking="true" endPos="16.86" until="659"/>
	</vehicle>
	<vehicle id="840" type="RSU" depart="0" departPos="176.69" color="255,0,0">
		<route edges="341"/>
		<stop lane="341_0" parking="true" endPos="176.69" until="659"/>
	</vehicle>
	<vehicle id="841" type="RSU" depart="0" departPos="137.32" color="255,0,0">
		<route edges="76"/>
		<stop lane="76_0" parking="true" endPos="137.32" until="659"/>
	</vehicle>
	<vehicle id="842" type="RSU" depart="0" departPos="41.21" color="255,0,0">
		<route edges="405#0"/>
		<stop lane="405#0_0" parking="true" endPos="41.21" until="659"/>
	</vehicle>
	<vehicle id="843" type="RSU" depart="0" departPos="43.19" color="255,0,0">
		<route edges="539"/>
		<stop lane="539_0" parking="true" endPos="43.19" until="659"/>
	</vehicle>
	<vehicle id="844" type="RSU" depart="0" departPos="116.42" color="255,0,0">
		<route edges="-299#0"/>
		<stop lane="-299#0_0" parking="true" endPos="116.42" until="659"/>
	</vehicle>
	<vehicle id="845" type="RSU" depart="0" departPos="154.47" color="255,0,0">
		<route edges="405#2"/>
		<stop lane="405#2_0" parking="true" endPos="154.47" until="659"/>
	</vehicle>
	<vehicle id="846" type="RSU" depart="0" departPos="52.48" color="255,0,0">
		<route edges="110"/>
		<stop lane="110_0" parking="true" endPos="52.48" until="659"/>
	</vehicle>
	<vehicle id="847" type="RSU" depart="0" departPos="118.68" color="255,0,0">
		<route edges="407"/>
		<stop lane="407_0" parking="true" endPos="118.68" until="659"/>
	</vehicle>
	<vehicle id="848" type="RSU" depart="0" departPos="92.35" color="255,0,0">
		<route edges="471#0"/>
		<stop lane="471#0_0" parking="true" endPos="92.35" until="659"/>
	</vehicle>
	<vehicle id="849" type="RSU" depart="0" departPos="60.42" color="255,0,0">
		<route edges="155"/>
		<stop lane="155_0" parking="true" endPos="60.42" until="659"/>
	</vehicle>
	<vehicle id="850" type="RSU" depart="0" departPos="5031.36" color="255,0,0">
		<route edges="608#0"/>
		<stop lane="608#0_0" parking="true" endPos="5031.36" until="659"/>
	</vehicle>
	<vehicle id="851" type="RSU" depart="0" departPos="162.4" color="255,0,0">
		<route edges="498#1"/>
		<stop lane="498#1_0" parking="true" endPos="162.4" until="659"/>
	</vehicle>
	<vehicle id="852" type="RSU" depart="0" departPos="213.5" color="255,0,0">
		<route edges="463#0"/>
		<stop lane="463#0_0" parking="true" endPos="213.5" until="659"/>
	</vehicle>
	<vehicle id="853" type="RSU" depart="0" departPos="310.02" color="255,0,0">
		<route edges="429#0"/>
		<stop lane="429#0_0" parking="true" endPos="310.02" until="659"/>
	</vehicle>
	<vehicle id="854" type="RSU" depart="0" departPos="53.78" color="255,0,0">
		<route edges="439"/>
		<stop lane="439_0" parking="true" endPos="53.78" until="659"/>
	</vehicle>
	<vehicle id="855" type="RSU" depart="0" departPos="173.15" color="255,0,0">
		<route edges="52"/>
		<stop lane="52_0" parking="true" endPos="173.15" until="659"/>
	</vehicle>
	<vehicle id="856" type="RSU" depart="0" departPos="51.47" color="255,0,0">
		<route edges="408#1"/>
		<stop lane="408#1_0" parking="true" endPos="51.47" until="659"/>
	</vehicle>
	<vehicle id="857" type="RSU" depart="0" departPos="764.28" color="255,0,0">
		<route edges="556"/>
		<stop lane="556_0" parking="true" endPos="764.28" until="659"/>
	</vehicle>
	<vehicle id="858" type="RSU" depart="0" departPos="14.45" color="255,0,0">
		<route edges="535#1"/>
		<stop lane="535#1_0" parking="true" endPos="14.45" until="659"/>
	</vehicle>
	<vehicle id="859" type="RSU" depart="0" departPos="8.19" color="255,0,0">
		<route edges="176"/>
		<stop lane="176_0" parking="true" endPos="8.19" until="659"/>
	</vehicle>
	<vehicle id="860" type="RSU" depart="0" departPos="145.67" color="255,0,0">
		<route edges="566#1"/>
		<stop lane="566#1_0" parking="true" endPos="145.67" until="659"/>
	</vehicle>
	<vehicle id="861" type="RSU" depart="0" departPos="77.92" color="255,0,0">
		<route edges="566#3"/>
		<stop lane="566#3_0" parking="true" endPos="77.92" until="659"/>
	</vehicle>
	<vehicle id="862" type="RSU" depart="0" departPos="10.21" color="255,0,0">
		<route edges="170"/>
		<stop lane="170_0" parking="true" endPos="10.21" until="659"/>
	</vehicle>
	<vehicle id="863" type="RSU" depart="0" departPos="24.55" color="255,0,0">
		<route edges="204#0"/>
		<stop lane="204#0_0" parking="true" endPos="24.55" until="659"/>
	</vehicle>
	<vehicle id="864" type="RSU" depart="0" departPos="183.27" color="255,0,0">
		<route edges="23#1"/>
		<stop lane="23#1_0" parking="true" endPos="183.27" until="659"/>
	</vehicle>
	<vehicle id="865" type="RSU" depart="0" departPos="71.09" color="255,0,0">
		<route edges="358#2"/>
		<stop lane="358#2_0" parking="true" endPos="71.09" until="659"/>
	</vehicle>
	<vehicle id="866" type="RSU" depart="0" departPos="65.83" color="255,0,0">
		<route edges="363"/>
		<stop lane="363_0" parking="true" endPos="65.83" until="659"/>
	</vehicle>
	<vehicle id="867" type="RSU" depart="0" departPos="64.24" color="255,0,0">
		<route edges="533"/>
		<stop lane="533_0" parking="true" endPos="64.24" until="659"/>
	</vehicle>
	<vehicle id="868" type="RSU" depart="0" departPos="296.54" color="255,0,0">
		<route edges="468#1"/>
		<stop lane="468#1_0" parking="true" endPos="296.54" until="659"/>
	</vehicle>
	<vehicle id="869" type="RSU" depart="0" departPos="153.8" color="255,0,0">
		<route edges="449#0"/>
		<stop lane="449#0_0" parking="true" endPos="153.8" until="659"/>
	</vehicle>
	<vehicle id="870" type="RSU" depart="0" departPos="21.44" color="255,0,0">
		<route edges="153"/>
		<stop lane="153_0" parking="true" endPos="21.44" until="659"/>
	</vehicle>
	<vehicle id="871" type="RSU" depart="0" departPos="80.36" color="255,0,0">
		<route edges="496#0"/>
		<stop lane="496#0_0" parking="true" endPos="80.36" until="659"/>
	</vehicle>
	<vehicle id="872" type="RSU" depart="0" departPos="73.38" color="255,0,0">
		<route edges="519"/>
		<stop lane="519_0" parking="true" endPos="73.38" until="659"/>
	</vehicle>
	<vehicle id="873" type="RSU" depart="0" departPos="157.44" color="255,0,0">
		<route edges="397#5"/>
		<stop lane="397#5_0" parking="true" endPos="157.44" until="659"/>
	</vehicle>
	<vehicle id="874" type="RSU" depart="0" departPos="62.32" color="255,0,0">
		<route edges="74"/>
		<stop lane="74_0" parking="true" endPos="62.32" until="659"/>
	</vehicle>
	<vehicle id="875" type="RSU" depart="0" departPos="26.83" color="255,0,0">
		<route edges="665#0"/>
		<stop lane="665#0_0" parking="true" endPos="26.83" until="659"/>
	</vehicle>
	<vehicle id="876" type="RSU" depart="0" departPos="95.13" color="255,0,0">
		<route edges="329#0"/>
		<stop lane="329#0_0" parking="true" endPos="95.13" until="659"/>
	</vehicle>
	<vehicle id="877" type="RSU" depart="0" departPos="194.78" color="255,0,0">
		<route edges="496#2"/>
		<stop lane="496#2_0" parking="true" endPos="194.78" until="659"/>
	</vehicle>
	<vehicle id="878" type="RSU" depart="0" departPos="185.32" color="255,0,0">
		<route edges="538#0"/>
		<stop lane="538#0_0" parking="true" endPos="185.32" until="659"/>
	</vehicle>
	<vehicle id="879" type="RSU" depart="0" departPos="11.23" color="255,0,0">
		<route edges="172"/>
		<stop lane="172_0" parking="true" endPos="11.23" until="659"/>
	</vehicle>
	<vehicle id="880" type="RSU" depart="0" departPos="191.9" color="255,0,0">
		<route edges="540#1"/>
		<stop lane="540#1_0" parking="true" endPos="191.9" until="659"/>
	</vehicle>
	<vehicle id="881" type="RSU" depart="0" departPos="265.42" color="255,0,0">
		<route edges="549#2"/>
		<stop lane="549#2_0" parking="true" endPos="265.42" until="659"/>
	</vehicle>
	<vehicle id="882" type="RSU" depart="0" departPos="176.72" color="255,0,0">
		<route edges="8#2"/>
		<stop lane="8#2_0" parking="true" endPos="176.72" until="659"/>
	</vehicle>
	<vehicle id="883" type="RSU" depart="0" departPos="48.92" color="255,0,0">
		<route edges="199#0"/>
		<stop lane="199#0_0" parking="true" endPos="48.92" until="659"/>
	</vehicle>
	<vehicle id="884" type="RSU" depart="0" departPos="61.13" color="255,0,0">
		<route edges="517"/>
		<stop lane="517_0" parking="true" endPos="61.13" until="659"/>
	</vehicle>
	<vehicle id="885" type="RSU" depart="0" departPos="17.36" color="255,0,0">
		<route edges="159"/>
		<stop lane="159_0" parking="true" endPos="17.36" until="659"/>
	</vehicle>
	<vehicle id="886" type="RSU" depart="0" departPos="33.1" color="255,0,0">
		<route edges="558#0"/>
		<stop lane="558#0_0" parking="true" endPos="33.1" until="659"/>
	</vehicle>
	<vehicle id="887" type="RSU" depart="0" departPos="125.3" color="255,0,0">
		<route edges="-9"/>
		<stop lane="-9_0" parking="true" endPos="125.3" until="659"/>
	</vehicle>
	<vehicle id="888" type="RSU" depart="0" departPos="638.87" color="255,0,0">
		<route edges="-634#0"/>
		<stop lane="-634#0_0" parking="true" endPos="638.87" until="659"/>
	</vehicle>
	<vehicle id="889" type="RSU" depart="0" departPos="153.35" color="255,0,0">
		<route edges="397#3"/>
		<stop lane="397#3_0" parking="true" endPos="153.35" until="659"/>
	</vehicle>
	<vehicle id="890" type="RSU" depart="0" departPos="236.73" color="255,0,0">
		<route edges="367"/>
		<stop lane="367_0" parking="true" endPos="236.73" until="659"/>
	</vehicle>
	<vehicle id="891" type="RSU" depart="0" departPos="32.73" color="255,0,0">
		<route edges="391"/>
		<stop lane="391_0" parking="true" endPos="32.73" until="659"/>
	</vehicle>
	<vehicle id="892" type="RSU" depart="0" departPos="81.57" color="255,0,0">
		<route edges="615"/>
		<stop lane="615_0" parking="true" endPos="81.57" until="659"/>
	</vehicle>
	<vehicle id="893" type="RSU" depart="0" departPos="24.88" color="255,0,0">
		<route edges="174"/>
		<stop lane="174_0" parking="true" endPos="24.88" until="659"/>
	</vehicle>
	<vehicle id="894" type="RSU" depart="0" departPos="170.79" color="255,0,0">
		<route edges="94"/>
		<stop lane="94_0" parking="true" endPos="170.79" until="659"/>
	</vehicle>
	<vehicle id="895" type="RSU" depart="0" departPos="270.15" color="255,0,0">
		<route edges="637#1"/>
		<stop lane="637#1_0" parking="true" endPos="270.15" until="659"/>
	</vehicle>
	<vehicle id="896" type="RSU" depart="0" departPos="701.98" color="255,0,0">
		<route edges="21"/>
		<stop lane="21_0" parking="true" endPos="701.98" until="659"/>
	</vehicle>
	<vehicle id="897" type="RSU" depart="0" departPos="115.54" color="255,0,0">
		<route edges="441#1"/>
		<stop lane="441#1_0" parking="true" endPos="115.54" until="659"/>
	</vehicle>
	<vehicle id="898" type="RSU" depart="0" departPos="326.25" color="255,0,0">
		<route edges="427"/>
		<stop lane="427_0" parking="true" endPos="326.25" until="659"/>
	</vehicle>
	<vehicle id="899" type="RSU" depart="0" departPos="447.5" color="255,0,0">
		<route edges="73"/>
		<stop lane="73_0" parking="true" endPos="447.5" until="659"/>
	</vehicle>
	<vehicle id="900" type="RSU" depart="0" departPos="84.32" color="255,0,0">
		<route edges="471#2"/>
		<stop lane="471#2_0" parking="true" endPos="84.32" until="659"/>
	</vehicle>
	<vehicle id="901" type="RSU" depart="0" departPos="270.66" color="255,0,0">
		<route edges="8#0"/>
		<stop lane="8#0_0" parking="true" endPos="270.66" until="659"/>
	</vehicle>
	<vehicle id="902" type="RSU" depart="0" departPos="141.44" color="255,0,0">
		<route edges="549#0"/>
		<stop lane="549#0_0" parking="true" endPos="141.44" until="659"/>
	</vehicle>
	<vehicle id="903" type="RSU" depart="0" departPos="56.97" color="255,0,0">
		<route edges="348"/>
		<stop lane="348_0" parking="true" endPos="56.97" until="659"/>
	</vehicle>
	<vehicle id="904" type="RSU" depart="0" departPos="39.23" color="255,0,0">
		<route edges="199#2"/>
		<stop lane="199#2_0" parking="true" endPos="39.23" until="659"/>
	</vehicle>
	<vehicle id="905" type="RSU" depart="0" departPos="57.93" color="255,0,0">
		<route edges="303#1"/>
		<stop lane="303#1_0" parking="true" endPos="57.93" until="659"/>
	</vehicle>
	<vehicle id="906" type="RSU" depart="0" departPos="72.88" color="255,0,0">
		<route edges="44"/>
		<stop lane="44_0" parking="true" endPos="72.88" until="659"/>
	</vehicle>
	<vehicle id="907" type="RSU" depart="0" departPos="103.97" color="255,0,0">
		<route edges="6"/>
		<stop lane="6_0" parking="true" endPos="103.97" until="659"/>
	</vehicle>
	<vehicle id="908" type="RSU" depart="0" departPos="265.67" color="255,0,0">
		<route edges="605#2"/>
		<stop lane="605#2_0" parking="true" endPos="265.67" until="659"/>
	</vehicle>
	<vehicle id="909" type="RSU" depart="0" departPos="335.53" color="255,0,0">
		<route edges="380"/>
		<stop lane="380_0" parking="true" endPos="335.53" until="659"/>
	</vehicle>
	<vehicle id="910" type="RSU" depart="0" departPos="103.8" color="255,0,0">
		<route edges="494#1"/>
		<stop lane="494#1_0" parking="true" endPos="103.8" until="659"/>
	</vehicle>
	<vehicle id="911" type="RSU" depart="0" departPos="62.95" color="255,0,0">
		<route edges="198#3"/>
		<stop lane="198#3_0" parking="true" endPos="62.95" until="659"/>
	</vehicle>
	<vehicle id="912" type="RSU" depart="0" departPos="21.03" color="255,0,0">
		<route edges="624"/>
		<stop lane="624_0" parking="true" endPos="21.03" until="659"/>
	</vehicle>
	<vehicle id="913" type="RSU" depart="0" departPos="209.64" color="255,0,0">
		<route edges="488#5"/>
		<stop lane="488#5_0" parking="true" endPos="209.64" until="659"/>
	</vehicle>
	<vehicle id="914" type="RSU" depart="0" departPos="24.19" color="255,0,0">
		<route edges="654"/>
		<stop lane="654_0" parking="true" endPos="24.19" until="659"/>
	</vehicle>
	<vehicle id="915" type="RSU" depart="0" departPos="29.6" color="255,0,0">
		<route edges="626"/>
		<stop lane="626_0" parking="true" endPos="29.6" until="659"/>
	</vehicle>
	<vehicle id="916" type="RSU" depart="0" departPos="284.54" color="255,0,0">
		<route edges="46"/>
		<stop lane="46_0" parking="true" endPos="284.54" until="659"/>
	</vehicle>
	<vehicle id="917" type="RSU" depart="0" departPos="895.73" color="255,0,0">
		<route edges="612#1"/>
		<stop lane="612#1_0" parking="true" endPos="895.73" until="659"/>
	</vehicle>
	<vehicle id="918" type="RSU" depart="0" departPos="214.24" color="255,0,0">
		<route edges="594#1"/>
		<stop lane="594#1_0" parking="true" endPos="214.24" until="659"/>
	</vehicle>
	<vehicle id="919" type="RSU" depart="0" departPos="264.61" color="255,0,0">
		<route edges="663"/>
		<stop lane="663_0" parking="true" endPos="264.61" until="659"/>
	</vehicle>
	<vehicle id="920" type="RSU" depart="0" departPos="12.48" color="255,0,0">
		<route edges="182"/>
		<stop lane="182_0" parking="true" endPos="12.48" until="659"/>
	</vehicle>
	<vehicle id="921" type="RSU" depart="0" departPos="883.73" color="255,0,0">
		<route edges="605#0"/>
		<stop lane="605#0_0" parking="true" endPos="883.73" until="659"/>
	</vehicle>
	<vehicle id="922" type="RSU" depart="0" departPos="51.23" color="255,0,0">
		<route edges="423"/>
		<stop lane="423_0" parking="true" endPos="51.23" until="659"/>
	</vehicle>
	<vehicle id="923" type="RSU" depart="0" departPos="29.66" color="255,0,0">
		<route edges="82"/>
		<stop lane="82_0" parking="true" endPos="29.66" until="659"/>
	</vehicle>
	<vehicle id="924" type="RSU" depart="0" departPos="92.6" color="255,0,0">
		<route edges="198#7"/>
		<stop lane="198#7_0" parking="true" endPos="92.6" until="659"/>
	</vehicle>
	<vehicle id="925" type="RSU" depart="0" departPos="74.02" color="255,0,0">
		<route edges="15#0"/>
		<stop lane="15#0_0" parking="true" endPos="74.02" until="659"/>
	</vehicle>
	<vehicle id="926" type="RSU" depart="0" departPos="7.34" color="255,0,0">
		<route edges="184"/>
		<stop lane="184_0" parking="true" endPos="7.34" until="659"/>
	</vehicle>
	<vehicle id="927" type="RSU" depart="0" departPos="151.61" color="255,0,0">
		<route edges="451"/>
		<stop lane="451_0" parking="true" endPos="151.61" until="659"/>
	</vehicle>
	<vehicle id="928" type="RSU" depart="0" departPos="13.93" color="255,0,0">
		<route edges="197"/>
		<stop lane="197_0" parking="true" endPos="13.93" until="659"/>
	</vehicle>
	<vehicle id="929" type="RSU" depart="0" departPos="371.58" color="255,0,0">
		<route edges="-483"/>
		<stop lane="-483_0" parking="true" endPos="371.58" until="659"/>
	</vehicle>
	<vehicle id="930" type="RSU" depart="0" departPos="39.91" color="255,0,0">
		<route edges="421"/>
		<stop lane="421_0" parking="true" endPos="39.91" until="659"/>
	</vehicle>
	<vehicle id="931" type="RSU" depart="0" departPos="7.88" color="255,0,0">
		<route edges="321#1"/>
		<stop lane="321#1_0" parking="true" endPos="7.88" until="659"/>
	</vehicle>
	<vehicle id="932" type="RSU" depart="0" departPos="163.09" color="255,0,0">
		<route edges="634#1"/>
		<stop lane="634#1_0" parking="true" endPos="163.09" until="659"/>
	</vehicle>
	<vehicle id="933" type="RSU" depart="0" departPos="142.15" color="255,0,0">
		<route edges="205#0"/>
		<stop lane="205#0_0" parking="true" endPos="142.15" until="659"/>
	</vehicle>
	<vehicle id="934" type="RSU" depart="0" departPos="238.62" color="255,0,0">
		<route edges="-378#0"/>
		<stop lane="-378#0_0" parking="true" endPos="238.62" until="659"/>
	</vehicle>
	<vehicle id="935" type="RSU" depart="0" departPos="7.7" color="255,0,0">
		<route edges="550#1"/>
		<stop lane="550#1_0" parking="true" endPos="7.7" until="659"/>
	</vehicle>
	<vehicle id="936" type="RSU" depart="0" departPos="356.5" color="255,0,0">
		<route edges="25"/>
		<stop lane="25_0" parking="true" endPos="356.5" until="659"/>
	</vehicle>
	<vehicle id="937" type="RSU" depart="0" departPos="191.63" color="255,0,0">
		<route edges="455#2"/>
		<stop lane="455#2_0" parking="true" endPos="191.63" until="659"/>
	</vehicle>
	<vehicle id="938" type="RSU" depart="0" departPos="36.65" color="255,0,0">
		<route edges="178"/>
		<stop lane="178_0" parking="true" endPos="36.65" until="659"/>
	</vehicle>
	<vehicle id="939" type="RSU" depart="0" departPos="51.53" color="255,0,0">
		<route edges="201#1"/>
		<stop lane="201#1_0" parking="true" endPos="51.53" until="659"/>
	</vehicle>
	<vehicle id="940" type="RSU" depart="0" departPos="9.64" color="255,0,0">
		<route edges="67#1"/>
		<stop lane="67#1_0" parking="true" endPos="9.64" until="659"/>
	</vehicle>
	<vehicle id="941" type="RSU" depart="0" departPos="102.27" color="255,0,0">
		<route edges="620"/>
		<stop lane="620_0" parking="true" endPos="102.27" until="659"/>
	</vehicle>
	<vehicle id="942" type="RSU" depart="0" departPos="233.02" color="255,0,0">
		<route edges="666#0"/>
		<stop lane="666#0_0" parking="true" endPos="233.02" until="659"/>
	</vehicle>
	<vehicle id="943" type="RSU" depart="0" departPos="220.12" color="255,0,0">
		<route edges="-56#0"/>
		<stop lane="-56#0_0" parking="true" endPos="220.12" until="659"/>
	</vehicle>
	<vehicle id="944" type="RSU" depart="0" departPos="53.62" color="255,0,0">
		<route edges="382"/>
		<stop lane="382_0" parking="true" endPos="53.62" until="659"/>
	</vehicle>
	<vehicle id="945" type="RSU" depart="0" departPos="223.99" color="255,0,0">
		<route edges="661#0"/>
		<stop lane="661#0_0" parking="true" endPos="223.99" until="659"/>
	</vehicle>
	<vehicle id="946" type="RSU" depart="0" departPos="219.43" color="255,0,0">
		<route edges="459#1"/>
		<stop lane="459#1_0" parking="true" endPos="219.43" until="659"/>
	</vehicle>
	<vehicle id="947" type="RSU" depart="0" departPos="150.91" color="255,0,0">
		<route edges="-65#1"/>
		<stop lane="-65#1_0" parking="true" endPos="150.91" until="659"/>
	</vehicle>
	<vehicle id="948" type="RSU" depart="0" departPos="124.54" color="255,0,0">
		<route edges="431#1"/>
		<stop lane="431#1_0" parking="true" endPos="124.54" until="659"/>
	</vehicle>
	<vehicle id="949" type="RSU" depart="0" departPos="45.53" color="255,0,0">
		<route edges="410#1"/>
		<stop lane="410#1_0" parking="true" endPos="45.53" until="659"/>
	</vehicle>
	<vehicle id="950" type="RSU" depart="0" departPos="269.95" color="255,0,0">
		<route edges="43"/>
		<stop lane="43_0" parking="true" endPos="269.95" until="659"/>
	</vehicle>
	<vehicle id="951" type="RSU" depart="0" departPos="265.26" color="255,0,0">
		<route edges="595"/>
		<stop lane="595_0" parking="true" endPos="265.26" until="659"/>
	</vehicle>
	<vehicle id="952" type="RSU" depart="0" departPos="132.78" color="255,0,0">
		<route edges="551#3"/>
		<stop lane="551#3_0" parking="true" endPos="132.78" until="659"/>
	</vehicle>
	<vehicle id="953" type="RSU" depart="0" departPos="21.26" color="255,0,0">
		<route edges="156"/>
		<stop lane="156_0" parking="true" endPos="21.26" until="659"/>
	</vehicle>
	<vehicle id="954" type="RSU" depart="0" departPos="4.15" color="255,0,0">
		<route edges="154"/>
		<stop lane="154_0" parking="true" endPos="4.15" until="659"/>
	</vehicle>
	<vehicle id="955" type="RSU" depart="0" departPos="152.23" color="255,0,0">
		<route edges="457#1"/>
		<stop lane="457#1_0" parking="true" endPos="152.23" until="659"/>
	</vehicle>
	<vehicle id="956" type="RSU" depart="0" departPos="89.36" color="255,0,0">
		<route edges="68#0"/>
		<stop lane="68#0_0" parking="true" endPos="89.36" until="659"/>
	</vehicle>
	<vehicle id="957" type="RSU" depart="0" departPos="10.18" color="255,0,0">
		<route edges="186"/>
		<stop lane="186_0" parking="true" endPos="10.18" until="659"/>
	</vehicle>
	<vehicle id="958" type="RSU" depart="0" departPos="46.75" color="255,0,0">
		<route edges="193"/>
		<stop lane="193_0" parking="true" endPos="46.75" until="659"/>
	</vehicle>
	<vehicle id="959" type="RSU" depart="0" departPos="277.67" color="255,0,0">
		<route edges="550#2"/>
		<stop lane="550#2_0" parking="true" endPos="277.67" until="659"/>
	</vehicle>
	<vehicle id="960" type="RSU" depart="0" departPos="9.2" color="255,0,0">
		<route edges="188"/>
		<stop lane="188_0" parking="true" endPos="9.2" until="659"/>
	</vehicle>
	<vehicle id="961" type="RSU" depart="0" departPos="64.64" color="255,0,0">
		<route edges="198#8"/>
		<stop lane="198#8_0" parking="true" endPos="64.64" until="659"/>
	</vehicle>
	<vehicle id="962" type="RSU" depart="0" departPos="765.32" color="255,0,0">
		<route edges="5"/>
		<stop lane="5_0" parking="true" endPos="765.32" until="659"/>
	</vehicle>
	<vehicle id="963" type="RSU" depart="0" departPos="22.38" color="255,0,0">
		<route edges="-490#0"/>
		<stop lane="-490#0_0" parking="true" endPos="22.38" until="659"/>
	</vehicle>
	<vehicle id="964" type="RSU" depart="0" departPos="23.57" color="255,0,0">
		<route edges="158"/>
		<stop lane="158_0" parking="true" endPos="23.57" until="659"/>
	</vehicle>
	<vehicle id="965" type="RSU" depart="0" departPos="176.69" color="255,0,0">
		<route edges="-341"/>
		<stop lane="-341_0" parking="true" endPos="176.69" until="659"/>
	</vehicle>
	<vehicle id="966" type="RSU" depart="0" departPos="756.56" color="255,0,0">
		<route edges="400"/>
		<stop lane="400_0" parking="true" endPos="756.56" until="659"/>
	</vehicle>
	<vehicle id="967" type="RSU" depart="0" departPos="58.36" color="255,0,0">
		<route edges="650"/>