<additional>
	<vType id="BUS" color="1,1,1" guiShape="bus"/>

	<vehicle id="0" type="BUS" depart="0" departPos="500" color="1,1,1">
		<route edges="2/2to2/3"/>
		<stop lane="2/2to2/3_0" endPos="500" until="500"/>
	</vehicle>
	<vehicle id="103" type="BUS" depart="0" departPos="500" color="1,1,1">
		<route edges="2/1to1/1"/>
		<stop lane="2/1to1/1_0" endPos="500" until="500"/>
	</vehicle>
	<vehicle id="2" type="BUS" depart="0" departPos="500" color="1,1,1">
		<route edges="1/2to1/1"/>
		<stop lane="1/2to1/1_0" endPos="500" until="500"/>
	</vehicle>
	<vehicle id="3" type="BUS" depart="0" departPos="500" color="1,1,1">
		<route edges="1/0to1/1"/>
		<stop lane="1/0to1/1_0" endPos="500" until="500"/>
	</vehicle>
	<vehicle id="4" type="BUS" depart="0" departPos="500" color="1,1,1">
		<route edges="3/0to2/0"/>
		<stop lane="3/0to2/0_0" endPos="500" until="500"/>
	</vehicle>
	<vehicle id="5" type="BUS" depart="0" departPos="500" color="1,1,1">
		<route edges="0/0to1/0"/>
		<stop lane="0/0to1/0_0" endPos="500" until="500"/>
	</vehicle>
	<vehicle id="6" type="BUS" depart="0" departPos="500" color="1,1,1">
		<route edges="1/2to1/3"/>
		<stop lane="1/2to1/3_0" endPos="500" until="500"/>
	</vehicle>
	<vehicle id="7" type="BUS" depart="0" departPos="500" color="1,1,1">
		<route edges="1/0to0/0"/>
		<stop lane="1/0to0/0_0" endPos="500" until="500"/>
	</vehicle>
	<vehicle id="8" type="BUS" depart="0" departPos="500" color="1,1,1">
		<route edges="0/2to1/2"/>
		<stop lane="0/2to1/2_0" endPos="500" until="500"/>
	</vehicle>
	<vehicle id="9" type="BUS" depart="0" departPos="500" color="1,1,1">
		<route edges="2/2to2/1"/>
		<stop lane="2/2to2/1_0" endPos="500" until="500"/>
	</vehicle>
	<vehicle id="10" type="BUS" depart="0" departPos="500" color="1,1,1">
		<route edges="1/3to0/3"/>
		<stop lane="1/3to0/3_0" endPos="500" until="500"/>
	</vehicle>
	<vehicle id="11" type="BUS" depart="0" departPos="500" color="1,1,1">
		<route edges="2/0to1/0"/>
		<stop lane="2/0to1/0_0" endPos="500" until="500"/>
	</vehicle>
	<vehicle id="12" type="BUS" depart="0" departPos="500" color="1,1,1">
		<route edges="1/2to2/2"/>
		<stop lane="1/2to2/2_0" endPos="500" until="500"/>
	</vehicle>
	<vehicle id="14" type="BUS" depart="0" departPos="500" color="1,1,1">
		<route edges="0/2to0/3"/>
		<stop lane="0/2to0/3_0" endPos="500" until="500"/>
	</vehicle>
	<vehicle id="15" type="BUS" depart="0" departPos="500" color="1,1,1">
		<route edges="0/1to0/0"/>
		<stop lane="0/1to0/0_0" endPos="500" until="500"/>
	</vehicle>
	<vehicle id="16" type="BUS" depart="0" departPos="500" color="1,1,1">
		<route edges="2/0to2/1"/>
		<stop lane="2/0to2/1_0" endPos="500" until="500"/>
	</vehicle>
	<vehicle id="18" type="BUS" depart="0" departPos="500" color="1,1,1">
		<route edges="2/1to3/1"/>
		<stop lane="2/1to3/1_0" endPos="500" until="500"/>
	</vehicle>
	<vehicle id="399" type="BUS" depart="0" departPos="500" color="1,1,1">
		<route edges="1/2to0/2"/>
		<stop lane="1/2to0/2_0" endPos="500" until="500"/>
	</vehicle>
	<vehicle id="22" type="BUS" depart="0" departPos="500" color="1,1,1">
		<route edges="1/3to2/3"/>
		<stop lane="1/3to2/3_0" endPos="500" until="500"/>
	</vehicle>
	<vehicle id="25" type="BUS" depart="0" departPos="500" color="1,1,1">
		<route edges="3/2to2/2"/>
		<stop lane="3/2to2/2_0" endPos="500" until="500"/>
	</vehicle>
	<vehicle id="26" type="BUS" depart="0" departPos="500" color="1,1,1">
		<route edges="1/3to1/2"/>
		<stop lane="1/3to1/2_0" endPos="500" until="500"/>
	</vehicle>
	<vehicle id="27" type="BUS" depart="0" departPos="500" color="1,1,1">
		<route edges="1/1to2/1"/>
		<stop lane="1/1to2/1_0" endPos="500" until="500"/>
	</vehicle>
	<vehicle id="29" type="BUS" depart="0" departPos="500" color="1,1,1">
		<route edges="0/1to0/2"/>
		<stop lane="0/1to0/2_0" endPos="500" until="500"/>
	</vehicle>
	<vehicle id="30" type="BUS" depart="0" departPos="500" color="1,1,1">
		<route edges="1/0to2/0"/>
		<stop lane="1/0to2/0_0" endPos="500" until="500"/>
	</vehicle>
	<vehicle id="34" type="BUS" depart="0" departPos="500" color="1,1,1">
		<route edges="0/0to0/1"/>
		<stop lane="0/0to0/1_0" endPos="500" until="500"/>
	</vehicle>
	<vehicle id="35" type="BUS" depart="0" departPos="500" color="1,1,1">
		<route edges="3/2to3/1"/>
		<stop lane="3/2to3/1_0" endPos="500" until="500"/>
	</vehicle>
	<vehicle id="38" type="BUS" depart="0" departPos="500" color="1,1,1">
		<route edges="3/1to3/2"/>
		<stop lane="3/1to3/2_0" endPos="500" until="500"/>
	</vehicle>
	<vehicle id="42" type="BUS" depart="0" departPos="500" color="1,1,1">
		<route edges="0/2to0/1"/>
		<stop lane="0/2to0/1_0" endPos="500" until="500"/>
	</vehicle>
	<vehicle id="44" type="BUS" depart="0" departPos="500" color="1,1,1">
		<route edges="3/1to2/1"/>
		<stop lane="3/1to2/1_0" endPos="500" until="500"/>
	</vehicle>
	<vehicle id="45" type="BUS" depart="0" departPos="500" color="1,1,1">
		<route edges="2/3to3/3"/>
		<stop lane="2/3to3/3_0" endPos="500" until="500"/>
	</vehicle>
	<vehicle id="46" type="BUS" depart="0" departPos="500" color="1,1,1">
		<route edges="2/2to3/2"/>
		<stop lane="2/2to3/2_0" endPos="500" until="500"/>
	</vehicle>
	<vehicle id="48" type="BUS" depart="0" departPos="500" color="1,1,1">
		<route edges="3/3to2/3"/>
		<stop lane="3/3to2/3_0" endPos="500" until="500"/>
	</vehicle>
	<vehicle id="76" type="BUS" depart="0" departPos="500" color="1,1,1">
		<route edges="3/1to3/0"/>
		<stop lane="3/1to3/0_0" endPos="500" until="500"/>
	</vehicle>
	<vehicle id="52" type="BUS" depart="0" departPos="500" color="1,1,1">
		<route edges="2/3to2/2"/>
		<stop lane="2/3to2/2_0" endPos="500" until="500"/>
	</vehicle>
	<vehicle id="54" type="BUS" depart="0" departPos="500" color="1,1,1">
		<route edges="3/2to3/3"/>
		<stop lane="3/2to3/3_0" endPos="500" until="500"/>
	</vehicle>
	<vehicle id="56" type="BUS" depart="0" departPos="500" color="1,1,1">
		<route edges="2/1to2/0"/>
		<stop lane="2/1to2/0_0" endPos="500" until="500"/>
	</vehicle>
	<vehicle id="63" type="BUS" depart="0" departPos="500" color="1,1,1">
		<route edges="2/0to3/0"/>
		<stop lane="2/0to3/0_0" endPos="500" until="500"/>
	</vehicle>
	<vehicle id="78" type="BUS" depart="0" departPos="500" color="1,1,1">
		<route edges="3/0to3/1"/>
		<stop lane="3/0to3/1_0" endPos="500" until="500"/>
	</vehicle>
	<vehicle id="87" type="BUS" depart="0" departPos="500" color="1,1,1">
		<route edges="0/3to1/3"/>
		<stop lane="0/3to1/3_0" endPos="500" until="500"/>
	</vehicle>
	<vehicle id="90" type="BUS" depart="0" departPos="500" color="1,1,1">
		<route edges="3/3to3/2"/>
		<stop lane="3/3to3/2_0" endPos="500" until="500"/>
	</vehicle>
	<vehicle id="95" type="BUS" depart="0" departPos="500" color="1,1,1">
		<route edges="2/1to2/2"/>
		<stop lane="2/1to2/2_0" endPos="500" until="500"/>
	</vehicle>
	<vehicle id="109" type="BUS" depart="0" departPos="500" color="1,1,1">
		<route edges="0/1to1/1"/>
		<stop lane="0/1to1/1_0" endPos="500" until="500"/>
	</vehicle>
	<vehicle id="111" type="BUS" depart="0" departPos="500" color="1,1,1">
		<route edges="1/1to1/2"/>
		<stop lane="1/1to1/2_0" endPos="500" until="500"/>
	</vehicle>
	<vehicle id="125" type="BUS" depart="0" departPos="500" color="1,1,1">
		<route edges="0/3to0/2"/>
		<stop lane="0/3to0/2_0" endPos="500" until="500"/>
	</vehicle>
	<vehicle id="142" type="BUS" depart="0" departPos="500" color="1,1,1">
		<route edges="2/2to1/2"/>
		<stop lane="2/2to1/2_0" endPos="500" until="500"/>
	</vehicle>
	<vehicle id="217" type="BUS" depart="0" departPos="500" color="1,1,1">
		<route edges="1/1to0/1"/>
		<stop lane="1/1to0/1_0" endPos="500" until="500"/>
	</vehicle>
	<vehicle id="219" type="BUS" depart="0" departPos="500" color="1,1,1">
		<route edges="2/3to1/3"/>
		<stop lane="2/3to1/3_0" endPos="500" until="500"/>
	</vehicle>
	<vehicle id="234" type="BUS" depart="0" departPos="500" color="1,1,1">
		<route edges="1/1to1/0"/>
		<stop lane="1/1to1/0_0" endPos="500" until="500"/>
	</vehicle>
</additional>
