<?xml version="1.0" encoding="UTF-8"?>

<!-- generated on 07/22/17 17:45:33 by SUMO duarouter Version 0.24.0
<?xml version="1.0" encoding="UTF-8"?>

<configuration xmlns:xsi="http://www.w3.org/2001/XMLSchema-instance" xsi:noNamespaceSchemaLocation="http://sumo.dlr.de/xsd/duarouterConfiguration.xsd">

    <input>
        <net-file value="input_net.net.xml"/>
        <additional-files value="newtype.add.xml"/>
        <trip-files value="newtrips.trips.xml"/>
    </input>

    <output>
        <output-file value="routes.rou.xml"/>
    </output>

    <time>
        <begin value="0"/>
        <end value="600"/>
    </time>

</configuration>
-->

<routes xmlns:xsi="http://www.w3.org/2001/XMLSchema-instance" xsi:noNamespaceSchemaLocation="http://sumo.dlr.de/xsd/routes_file.xsd">
    <vType id="BUS" guiShape="bus" color="white"/>
    <vehicle id="0" type="BUS" depart="0.00" departPos="500.00" color="white">
        <route edges="2/2to2/3"/>
        <stop lane="2/2to2/3_0" endPos="500.00" until="500.00"/>
    </vehicle>
    <vehicle id="10" type="BUS" depart="0.00" departPos="500.00" color="white">
        <route edges="1/3to0/3"/>
        <stop lane="1/3to0/3_0" endPos="500.00" until="500.00"/>
    </vehicle>
    <vehicle id="103" type="BUS" depart="0.00" departPos="500.00" color="white">
        <route edges="2/1to1/1"/>
        <stop lane="2/1to1/1_0" endPos="500.00" until="500.00"/>
    </vehicle>
    <vehicle id="109" type="BUS" depart="0.00" departPos="500.00" color="white">
        <route edges="0/1to1/1"/>
        <stop lane="0/1to1/1_0" endPos="500.00" until="500.00"/>
    </vehicle>
    <vehicle id="11" type="BUS" depart="0.00" departPos="500.00" color="white">
        <route edges="2/0to1/0"/>
        <stop lane="2/0to1/0_0" endPos="500.00" until="500.00"/>
    </vehicle>
    <vehicle id="111" type="BUS" depart="0.00" departPos="500.00" color="white">
        <route edges="1/1to1/2"/>
        <stop lane="1/1to1/2_0" endPos="500.00" until="500.00"/>
    </vehicle>
    <vehicle id="12" type="BUS" depart="0.00" departPos="500.00" color="white">
        <route edges="1/2to2/2"/>
        <stop lane="1/2to2/2_0" endPos="500.00" until="500.00"/>
    </vehicle>
    <vehicle id="125" type="BUS" depart="0.00" departPos="500.00" color="white">
        <route edges="0/3to0/2"/>
        <stop lane="0/3to0/2_0" endPos="500.00" until="500.00"/>
    </vehicle>
    <vehicle id="14" type="BUS" depart="0.00" departPos="500.00" color="white">
        <route edges="0/2to0/3"/>
        <stop lane="0/2to0/3_0" endPos="500.00" until="500.00"/>
    </vehicle>
    <vehicle id="142" type="BUS" depart="0.00" departPos="500.00" color="white">
        <route edges="2/2to1/2"/>
        <stop lane="2/2to1/2_0" endPos="500.00" until="500.00"/>
    </vehicle>
    <vehicle id="15" type="BUS" depart="0.00" departPos="500.00" color="white">
        <route edges="0/1to0/0"/>
        <stop lane="0/1to0/0_0" endPos="500.00" until="500.00"/>
    </vehicle>
    <vehicle id="16" type="BUS" depart="0.00" departPos="500.00" color="white">
        <route edges="2/0to2/1"/>
        <stop lane="2/0to2/1_0" endPos="500.00" until="500.00"/>
    </vehicle>
    <vehicle id="18" type="BUS" depart="0.00" departPos="500.00" color="white">
        <route edges="2/1to3/1"/>
        <stop lane="2/1to3/1_0" endPos="500.00" until="500.00"/>
    </vehicle>
    <vehicle id="2" type="BUS" depart="0.00" departPos="500.00" color="white">
        <route edges="1/2to1/1"/>
        <stop lane="1/2to1/1_0" endPos="500.00" until="500.00"/>
    </vehicle>
    <vehicle id="217" type="BUS" depart="0.00" departPos="500.00" color="white">
        <route edges="1/1to0/1"/>
        <stop lane="1/1to0/1_0" endPos="500.00" until="500.00"/>
    </vehicle>
    <vehicle id="219" type="BUS" depart="0.00" departPos="500.00" color="white">
        <route edges="2/3to1/3"/>
        <stop lane="2/3to1/3_0" endPos="500.00" until="500.00"/>
    </vehicle>
    <vehicle id="22" type="BUS" depart="0.00" departPos="500.00" color="white">
        <route edges="1/3to2/3"/>
        <stop lane="1/3to2/3_0" endPos="500.00" until="500.00"/>
    </vehicle>
    <vehicle id="234" type="BUS" depart="0.00" departPos="500.00" color="white">
        <route edges="1/1to1/0"/>
        <stop lane="1/1to1/0_0" endPos="500.00" until="500.00"/>
    </vehicle>
    <vehicle id="25" type="BUS" depart="0.00" departPos="500.00" color="white">
        <route edges="3/2to2/2"/>
        <stop lane="3/2to2/2_0" endPos="500.00" until="500.00"/>
    </vehicle>
    <vehicle id="26" type="BUS" depart="0.00" departPos="500.00" color="white">
        <route edges="1/3to1/2"/>
        <stop lane="1/3to1/2_0" endPos="500.00" until="500.00"/>
    </vehicle>
    <vehicle id="27" type="BUS" depart="0.00" departPos="500.00" color="white">
        <route edges="1/1to2/1"/>
        <stop lane="1/1to2/1_0" endPos="500.00" until="500.00"/>
    </vehicle>
    <vehicle id="29" type="BUS" depart="0.00" departPos="500.00" color="white">
        <route edges="0/1to0/2"/>
        <stop lane="0/1to0/2_0" endPos="500.00" until="500.00"/>
    </vehicle>
    <vehicle id="3" type="BUS" depart="0.00" departPos="500.00" color="white">
        <route edges="1/0to1/1"/>
        <stop lane="1/0to1/1_0" endPos="500.00" until="500.00"/>
    </vehicle>
    <vehicle id="30" type="BUS" depart="0.00" departPos="500.00" color="white">
        <route edges="1/0to2/0"/>
        <stop lane="1/0to2/0_0" endPos="500.00" until="500.00"/>
    </vehicle>
    <vehicle id="34" type="BUS" depart="0.00" departPos="500.00" color="white">
        <route edges="0/0to0/1"/>
        <stop lane="0/0to0/1_0" endPos="500.00" until="500.00"/>
    </vehicle>
    <vehicle id="35" type="BUS" depart="0.00" departPos="500.00" color="white">
        <route edges="3/2to3/1"/>
        <stop lane="3/2to3/1_0" endPos="500.00" until="500.00"/>
    </vehicle>
    <vehicle id="38" type="BUS" depart="0.00" departPos="500.00" color="white">
        <route edges="3/1to3/2"/>
        <stop lane="3/1to3/2_0" endPos="500.00" until="500.00"/>
    </vehicle>
    <vehicle id="399" type="BUS" depart="0.00" departPos="500.00" color="white">
        <route edges="1/2to0/2"/>
        <stop lane="1/2to0/2_0" endPos="500.00" until="500.00"/>
    </vehicle>
    <vehicle id="4" type="BUS" depart="0.00" departPos="500.00" color="white">
        <route edges="3/0to2/0"/>
        <stop lane="3/0to2/0_0" endPos="500.00" until="500.00"/>
    </vehicle>
    <vehicle id="42" type="BUS" depart="0.00" departPos="500.00" color="white">
        <route edges="0/2to0/1"/>
        <stop lane="0/2to0/1_0" endPos="500.00" until="500.00"/>
    </vehicle>
    <vehicle id="44" type="BUS" depart="0.00" departPos="500.00" color="white">
        <route edges="3/1to2/1"/>
        <stop lane="3/1to2/1_0" endPos="500.00" until="500.00"/>
    </vehicle>
    <vehicle id="45" type="BUS" depart="0.00" departPos="500.00" color="white">
        <route edges="2/3to3/3"/>
        <stop lane="2/3to3/3_0" endPos="500.00" until="500.00"/>
    </vehicle>
    <vehicle id="46" type="BUS" depart="0.00" departPos="500.00" color="white">
        <route edges="2/2to3/2"/>
        <stop lane="2/2to3/2_0" endPos="500.00" until="500.00"/>
    </vehicle>
    <vehicle id="48" type="BUS" depart="0.00" departPos="500.00" color="white">
        <route edges="3/3to2/3"/>
        <stop lane="3/3to2/3_0" endPos="500.00" until="500.00"/>
    </vehicle>
    <vehicle id="5" type="BUS" depart="0.00" departPos="500.00" color="white">
        <route edges="0/0to1/0"/>
        <stop lane="0/0to1/0_0" endPos="500.00" until="500.00"/>
    </vehicle>
    <vehicle id="52" type="BUS" depart="0.00" departPos="500.00" color="white">
        <route edges="2/3to2/2"/>
        <stop lane="2/3to2/2_0" endPos="500.00" until="500.00"/>
    </vehicle>
    <vehicle id="54" type="BUS" depart="0.00" departPos="500.00" color="white">
        <route edges="3/2to3/3"/>
        <stop lane="3/2to3/3_0" endPos="500.00" until="500.00"/>
    </vehicle>
    <vehicle id="56" type="BUS" depart="0.00" departPos="500.00" color="white">
        <route edges="2/1to2/0"/>
        <stop lane="2/1to2/0_0" endPos="500.00" until="500.00"/>
    </vehicle>
    <vehicle id="6" type="BUS" depart="0.00" departPos="500.00" color="white">
        <route edges="1/2to1/3"/>
        <stop lane="1/2to1/3_0" endPos="500.00" until="500.00"/>
    </vehicle>
    <vehicle id="63" type="BUS" depart="0.00" departPos="500.00" color="white">
        <route edges="2/0to3/0"/>
        <stop lane="2/0to3/0_0" endPos="500.00" until="500.00"/>
    </vehicle>
    <vehicle id="7" type="BUS" depart="0.00" departPos="500.00" color="white">
        <route edges="1/0to0/0"/>
        <stop lane="1/0to0/0_0" endPos="500.00" until="500.00"/>
    </vehicle>
    <vehicle id="76" type="BUS" depart="0.00" departPos="500.00" color="white">
        <route edges="3/1to3/0"/>
        <stop lane="3/1to3/0_0" endPos="500.00" until="500.00"/>
    </vehicle>
    <vehicle id="78" type="BUS" depart="0.00" departPos="500.00" color="white">
        <route edges="3/0to3/1"/>
        <stop lane="3/0to3/1_0" endPos="500.00" until="500.00"/>
    </vehicle>
    <vehicle id="8" type="BUS" depart="0.00" departPos="500.00" color="white">
        <route edges="0/2to1/2"/>
        <stop lane="0/2to1/2_0" endPos="500.00" until="500.00"/>
    </vehicle>
    <vehicle id="87" type="BUS" depart="0.00" departPos="500.00" color="white">
        <route edges="0/3to1/3"/>
        <stop lane="0/3to1/3_0" endPos="500.00" until="500.00"/>
    </vehicle>
    <vehicle id="9" type="BUS" depart="0.00" departPos="500.00" color="white">
        <route edges="2/2to2/1"/>
        <stop lane="2/2to2/1_0" endPos="500.00" until="500.00"/>
    </vehicle>
    <vehicle id="90" type="BUS" depart="0.00" departPos="500.00" color="white">
        <route edges="3/3to3/2"/>
        <stop lane="3/3to3/2_0" endPos="500.00" until="500.00"/>
    </vehicle>
    <vehicle id="95" type="BUS" depart="0.00" departPos="500.00" color="white">
        <route edges="2/1to2/2"/>
        <stop lane="2/1to2/2_0" endPos="500.00" until="500.00"/>
    </vehicle>
    <vehicle id="13" depart="0.65" departLane="best">
        <route edges="2/2to2/1 2/1to2/0 2/0to2/1"/>
    </vehicle>
    <vehicle id="17" depart="0.85" departLane="best">
        <route edges="0/2to1/2 1/2to0/2 0/2to0/1"/>
    </vehicle>
    <vehicle id="20" depart="1.00" departLane="best">
        <route edges="2/0to2/1"/>
    </vehicle>
    <vehicle id="21" depart="1.05" departLane="best">
        <route edges="3/0to2/0 2/0to1/0 1/0to1/1 1/1to1/2 1/2to1/3 1/3to0/3"/>
    </vehicle>
    <vehicle id="23" depart="1.15" departLane="best">
        <route edges="0/2to0/3 0/3to0/2 0/2to0/1 0/1to1/1"/>
    </vehicle>
    <vehicle id="24" depart="1.20" departLane="best">
        <route edges="1/0to1/1"/>
    </vehicle>
    <vehicle id="28" depart="1.40" departLane="best">
        <route edges="2/2to2/1 2/1to2/0 2/0to3/0 3/0to2/0"/>
    </vehicle>
    <vehicle id="31" depart="1.55" departLane="best">
        <route edges="2/2to2/1 2/1to1/1 1/1to1/2 1/2to2/2"/>
    </vehicle>
    <vehicle id="32" depart="1.60" departLane="best">
        <route edges="2/1to3/1 3/1to2/1 2/1to1/1 1/1to0/1"/>
    </vehicle>
    <vehicle id="33" depart="1.65" departLane="best">
        <route edges="3/2to2/2 2/2to2/1 2/1to3/1 3/1to3/0"/>
    </vehicle>
    <vehicle id="36" depart="1.80" departLane="best">
        <route edges="0/1to0/0 0/0to0/1 0/1to0/2 0/2to0/3 0/3to1/3 1/3to1/2"/>
    </vehicle>
    <vehicle id="37" depart="1.85" departLane="best">
        <route edges="0/2to1/2 1/2to0/2 0/2to0/1 0/1to0/0"/>
    </vehicle>
    <vehicle id="39" depart="1.95" departLane="best">
        <route edges="0/0to0/1 0/1to0/2 0/2to0/3 0/3to1/3"/>
    </vehicle>
    <vehicle id="40" depart="2.00" departLane="best">
        <route edges="0/1to0/0 0/0to0/1 0/1to1/1"/>
    </vehicle>
    <vehicle id="41" depart="2.05" departLane="best">
        <route edges="2/2to2/1 2/1to1/1 1/1to1/2 1/2to1/3"/>
    </vehicle>
    <vehicle id="43" depart="2.15" departLane="best">
        <route edges="2/2to2/1 2/1to2/0 2/0to2/1"/>
    </vehicle>
    <vehicle id="47" depart="2.35" departLane="best">
        <route edges="0/1to0/2 0/2to0/3 0/3to1/3"/>
    </vehicle>
    <vehicle id="50" depart="2.50" departLane="best">
        <route edges="3/0to2/0 2/0to1/0 1/0to1/1 1/1to1/2 1/2to1/3 1/3to2/3"/>
    </vehicle>
    <vehicle id="51" depart="2.55" departLane="best">
        <route edges="2/3to3/3 3/3to2/3 2/3to1/3 1/3to0/3 0/3to0/2 0/2to0/1 0/1to0/0"/>
    </vehicle>
    <vehicle id="53" depart="2.65" departLane="best">
        <route edges="0/2to1/2 1/2to1/3 1/3to0/3"/>
    </vehicle>
    <vehicle id="55" depart="2.75" departLane="best">
        <route edges="2/1to1/1 1/1to1/2 1/2to0/2"/>
    </vehicle>
    <vehicle id="57" depart="2.85" departLane="best">
        <route edges="1/2to0/2 0/2to0/1 0/1to0/0"/>
    </vehicle>
    <vehicle id="58" depart="2.90" departLane="best">
        <route edges="0/2to0/3 0/3to0/2 0/2to0/1 0/1to1/1 1/1to2/1 2/1to3/1 3/1to3/0"/>
    </vehicle>
    <vehicle id="59" depart="2.95" departLane="best">
        <route edges="2/3to2/2 2/2to1/2 1/2to0/2 0/2to0/1 0/1to0/0 0/0to1/0"/>
    </vehicle>
    <vehicle id="60" depart="3.00" departLane="best">
        <route edges="3/2to3/1 3/1to2/1 2/1to1/1 1/1to1/2 1/2to1/3"/>
    </vehicle>
    <vehicle id="61" depart="3.05" departLane="best">
        <route edges="0/1to0/2 0/2to0/3 0/3to1/3"/>
    </vehicle>
    <vehicle id="62" depart="3.10" departLane="best">
        <route edges="1/2to2/2 2/2to2/3 2/3to1/3"/>
    </vehicle>
    <vehicle id="64" depart="3.20" departLane="best">
        <route edges="2/1to1/1 1/1to0/1"/>
    </vehicle>
    <vehicle id="65" depart="3.25" departLane="best">
        <route edges="3/2to3/3 3/3to2/3 2/3to1/3 1/3to1/2 1/2to1/1 1/1to2/1"/>
    </vehicle>
    <vehicle id="66" depart="3.30" departLane="best">
        <route edges="0/0to0/1 0/1to1/1 1/1to2/1 2/1to1/1"/>
    </vehicle>
    <vehicle id="67" depart="3.35" departLane="best">
        <route edges="3/2to3/1"/>
    </vehicle>
    <vehicle id="68" depart="3.40" departLane="best">
        <route edges="3/2to2/2 2/2to1/2 1/2to0/2 0/2to0/1 0/1to0/2"/>
    </vehicle>
    <vehicle id="69" depart="3.45" departLane="best">
        <route edges="3/1to3/0 3/0to2/0 2/0to1/0 1/0to0/0 0/0to1/0"/>
    </vehicle>
    <vehicle id="70" depart="3.50" departLane="best">
        <route edges="0/0to1/0 1/0to2/0 2/0to3/0 3/0to3/1"/>
    </vehicle>
    <vehicle id="71" depart="3.55" departLane="best">
        <route edges="2/0to1/0 1/0to1/1 1/1to2/1 2/1to1/1"/>
    </vehicle>
    <vehicle id="72" depart="3.60" departLane="best">
        <route edges="1/2to1/3 1/3to1/2"/>
    </vehicle>
    <vehicle id="73" depart="3.65" departLane="best">
        <route edges="3/2to3/1 3/1to2/1 2/1to1/1 1/1to0/1 0/1to0/2 0/2to0/3 0/3to0/2"/>
    </vehicle>
    <vehicle id="74" depart="3.70" departLane="best">
        <route edges="1/3to2/3 2/3to1/3 1/3to0/3 0/3to0/2 0/2to0/1 0/1to1/1"/>
    </vehicle>
    <vehicle id="75" depart="3.75" departLane="best">
        <route edges="2/3to3/3 3/3to2/3 2/3to1/3 1/3to1/2"/>
    </vehicle>
    <vehicle id="49" depart="3.80" departLane="best">
        <route edges="3/1to3/0 3/0to3/1 3/1to3/2 3/2to3/3 3/3to2/3"/>
    </vehicle>
    <vehicle id="77" depart="3.85" departLane="best">
        <route edges="1/0to0/0 0/0to0/1 0/1to1/1 1/1to2/1 2/1to2/0"/>
    </vehicle>
    <vehicle id="79" depart="3.95" departLane="best">
        <route edges="0/2to0/1 0/1to0/2 0/2to1/2 1/2to1/3"/>
    </vehicle>
    <vehicle id="80" depart="4.00" departLane="best">
        <route edges="2/2to2/3 2/3to2/2 2/2to2/1 2/1to3/1 3/1to2/1"/>
    </vehicle>
    <vehicle id="81" depart="4.05" departLane="best">
        <route edges="1/3to1/2 1/2to1/1 1/1to1/0"/>
    </vehicle>
    <vehicle id="82" depart="4.10" departLane="best">
        <route edges="1/3to0/3 0/3to0/2 0/2to0/1"/>
    </vehicle>
    <vehicle id="83" depart="4.15" departLane="best">
        <route edges="2/2to3/2 3/2to2/2 2/2to1/2 1/2to1/1 1/1to1/0 1/0to2/0"/>
    </vehicle>
    <vehicle id="84" depart="4.20" departLane="best">
        <route edges="0/2to0/3 0/3to1/3"/>
    </vehicle>
    <vehicle id="85" depart="4.25" departLane="best">
        <route edges="1/0to0/0 0/0to0/1 0/1to0/2 0/2to1/2 1/2to0/2"/>
    </vehicle>
    <vehicle id="86" depart="4.30" departLane="best">
        <route edges="3/0to2/0 2/0to1/0 1/0to1/1 1/1to2/1"/>
    </vehicle>
    <vehicle id="88" depart="4.40" departLane="best">
        <route edges="2/3to3/3 3/3to2/3 2/3to2/2 2/2to2/1 2/1to2/0"/>
    </vehicle>
    <vehicle id="89" depart="4.45" departLane="best">
        <route edges="1/2to1/1 1/1to0/1 0/1to0/0"/>
    </vehicle>
    <vehicle id="91" depart="4.55" departLane="best">
        <route edges="0/1to0/0 0/0to0/1 0/1to1/1 1/1to2/1 2/1to1/1"/>
    </vehicle>
    <vehicle id="92" depart="4.60" departLane="best">
        <route edges="1/2to2/2 2/2to1/2 1/2to1/1"/>
    </vehicle>
    <vehicle id="93" depart="4.65" departLane="best">
        <route edges="3/2to3/3 3/3to2/3 2/3to1/3 1/3to0/3 0/3to0/2 0/2to0/1 0/1to0/0"/>
    </vehicle>
    <vehicle id="94" depart="4.70" departLane="best">
        <route edges="1/0to2/0 2/0to2/1 2/1to2/2 2/2to2/3 2/3to3/3 3/3to3/2"/>
    </vehicle>
    <vehicle id="96" depart="4.80" departLane="best">
        <route edges="3/0to2/0 2/0to1/0 1/0to1/1 1/1to1/2 1/2to0/2"/>
    </vehicle>
    <vehicle id="97" depart="4.85" departLane="best">
        <route edges="1/0to1/1 1/1to1/0 1/0to0/0"/>
    </vehicle>
    <vehicle id="98" depart="4.90" departLane="best">
        <route edges="2/3to2/2 2/2to2/3 2/3to3/3 3/3to2/3"/>
    </vehicle>
    <vehicle id="99" depart="4.95" departLane="best">
        <route edges="3/1to3/2 3/2to2/2 2/2to1/2 1/2to1/1 1/1to1/0 1/0to1/1"/>
    </vehicle>
    <vehicle id="100" depart="5.00" departLane="best">
        <route edges="2/3to3/3 3/3to2/3 2/3to1/3 1/3to1/2 1/2to1/1 1/1to1/0"/>
    </vehicle>
    <vehicle id="101" depart="5.05" departLane="best">
        <route edges="3/2to3/3 3/3to2/3 2/3to2/2 2/2to2/3"/>
    </vehicle>
    <vehicle id="102" depart="5.10" departLane="best">
        <route edges="3/0to2/0 2/0to1/0 1/0to1/1 1/1to1/2 1/2to2/2"/>
    </vehicle>
    <vehicle id="1" depart="5.15" departLane="best">
        <route edges="2/1to1/1 1/1to1/2 1/2to1/3 1/3to2/3 2/3to2/2"/>
    </vehicle>
    <vehicle id="104" depart="5.20" departLane="best">
        <route edges="2/1to2/0 2/0to1/0 1/0to1/1 1/1to1/0"/>
    </vehicle>
    <vehicle id="105" depart="5.25" departLane="best">
        <route edges="3/2to3/1 3/1to2/1 2/1to1/1 1/1to0/1 0/1to0/0"/>
    </vehicle>
    <vehicle id="106" depart="5.30" departLane="best">
        <route edges="3/0to3/1 3/1to2/1 2/1to1/1 1/1to1/2 1/2to1/3"/>
    </vehicle>
    <vehicle id="107" depart="5.35" departLane="best">
        <route edges="2/1to1/1 1/1to1/2 1/2to0/2"/>
    </vehicle>
    <vehicle id="108" depart="5.40" departLane="best">
        <route edges="1/3to1/2 1/2to1/3 1/3to2/3"/>
    </vehicle>
    <vehicle id="110" depart="5.50" departLane="best">
        <route edges="0/2to0/3 0/3to1/3 1/3to2/3 2/3to2/2"/>
    </vehicle>
    <vehicle id="112" depart="5.60" departLane="best">
        <route edges="0/0to0/1 0/1to0/2 0/2to0/3 0/3to1/3"/>
    </vehicle>
    <vehicle id="113" depart="5.65" departLane="best">
        <route edges="0/2to0/3 0/3to0/2 0/2to0/1 0/1to1/1 1/1to2/1 2/1to2/2"/>
    </vehicle>
    <vehicle id="114" depart="5.70" departLane="best">
        <route edges="2/1to1/1 1/1to1/2 1/2to2/2 2/2to2/1"/>
    </vehicle>
    <vehicle id="115" depart="5.75" departLane="best">
        <route edges="0/1to0/2 0/2to0/1 0/1to0/0 0/0to1/0 1/0to2/0"/>
    </vehicle>
    <vehicle id="116" depart="5.80" departLane="best">
        <route edges="1/2to1/3 1/3to1/2 1/2to1/1 1/1to2/1 2/1to3/1 3/1to3/0"/>
    </vehicle>
    <vehicle id="117" depart="5.85" departLane="best">
        <route edges="3/3to3/2 3/2to2/2 2/2to1/2 1/2to0/2 0/2to1/2"/>
    </vehicle>
    <vehicle id="118" depart="5.90" departLane="best">
        <route edges="3/3to3/2 3/2to2/2 2/2to1/2 1/2to1/1"/>
    </vehicle>
    <vehicle id="119" depart="5.95" departLane="best">
        <route edges="0/1to0/0 0/0to0/1 0/1to1/1 1/1to2/1 2/1to2/2"/>
    </vehicle>
    <vehicle id="120" depart="6.00" departLane="best">
        <route edges="2/1to1/1 1/1to1/0"/>
    </vehicle>
    <vehicle id="121" depart="6.05" departLane="best">
        <route edges="2/0to1/0 1/0to2/0"/>
    </vehicle>
    <vehicle id="122" depart="6.10" departLane="best">
        <route edges="1/0to1/1 1/1to2/1 2/1to2/2"/>
    </vehicle>
    <vehicle id="123" depart="6.15" departLane="best">
        <route edges="2/2to2/1 2/1to1/1 1/1to1/0"/>
    </vehicle>
    <vehicle id="124" depart="6.20" departLane="best">
        <route edges="3/2to3/3 3/3to2/3 2/3to1/3 1/3to0/3 0/3to0/2"/>
    </vehicle>
    <vehicle id="126" depart="6.30" departLane="best">
        <route edges="3/2to3/1 3/1to2/1 2/1to1/1 1/1to1/2 1/2to1/3"/>
    </vehicle>
    <vehicle id="127" depart="6.35" departLane="best">
        <route edges="1/3to0/3 0/3to0/2 0/2to0/1 0/1to1/1 1/1to2/1 2/1to1/1"/>
    </vehicle>
    <vehicle id="128" depart="6.40" departLane="best">
        <route edges="2/1to2/2 2/2to1/2 1/2to1/3"/>
    </vehicle>
    <vehicle id="129" depart="6.45" departLane="best">
        <route edges="3/3to2/3 2/3to1/3 1/3to0/3 0/3to0/2 0/2to0/1 0/1to0/0 0/0to0/1"/>
    </vehicle>
    <vehicle id="130" depart="6.50" departLane="best">
        <route edges="0/2to1/2 1/2to2/2 2/2to3/2 3/2to3/1"/>
    </vehicle>
    <vehicle id="131" depart="6.55" departLane="best">
        <route edges="0/2to0/1 0/1to0/2 0/2to0/3 0/3to1/3 1/3to2/3 2/3to3/3"/>
    </vehicle>
    <vehicle id="132" depart="6.60" departLane="best">
        <route edges="2/0to2/1 2/1to1/1 1/1to2/1"/>
    </vehicle>
    <vehicle id="133" depart="6.65" departLane="best">
        <route edges="0/3to0/2"/>
    </vehicle>
    <vehicle id="134" depart="6.70" departLane="best">
        <route edges="2/1to1/1 1/1to0/1 0/1to1/1"/>
    </vehicle>
    <vehicle id="135" depart="6.75" departLane="best">
        <route edges="0/1to0/0 0/0to0/1 0/1to0/2"/>
    </vehicle>
    <vehicle id="136" depart="6.80" departLane="best">
        <route edges="1/0to1/1 1/1to0/1 0/1to0/2"/>
    </vehicle>
    <vehicle id="137" depart="6.85" departLane="best">
        <route edges="3/3to2/3 2/3to2/2 2/2to2/1 2/1to3/1"/>
    </vehicle>
    <vehicle id="138" depart="6.90" departLane="best">
        <route edges="2/1to1/1 1/1to0/1 0/1to0/2"/>
    </vehicle>
    <vehicle id="139" depart="6.95" departLane="best">
        <route edges="1/1to1/2 1/2to2/2 2/2to3/2 3/2to3/3"/>
    </vehicle>
    <vehicle id="140" depart="7.00" departLane="best">
        <route edges="1/0to2/0 2/0to1/0 1/0to1/1 1/1to1/2"/>
    </vehicle>
    <vehicle id="141" depart="7.05" departLane="best">
        <route edges="1/0to0/0 0/0to0/1 0/1to0/2 0/2to1/2"/>
    </vehicle>
    <vehicle id="143" depart="7.15" departLane="best">
        <route edges="3/1to2/1 2/1to1/1 1/1to1/0 1/0to0/0"/>
    </vehicle>
    <vehicle id="144" depart="7.20" departLane="best">
        <route edges="2/1to3/1 3/1to2/1 2/1to1/1 1/1to0/1 0/1to0/2"/>
    </vehicle>
    <vehicle id="145" depart="7.25" departLane="best">
        <route edges="3/3to2/3"/>
    </vehicle>
    <vehicle id="146" depart="7.30" departLane="best">
        <route edges="2/2to3/2 3/2to2/2 2/2to1/2 1/2to1/1 1/1to1/2"/>
    </vehicle>
    <vehicle id="147" depart="7.35" departLane="best">
        <route edges="2/3to3/3 3/3to2/3 2/3to1/3 1/3to2/3"/>
    </vehicle>
    <vehicle id="148" depart="7.40" departLane="best">
        <route edges="2/1to2/0 2/0to1/0 1/0to0/0 0/0to0/1 0/1to0/2 0/2to0/1"/>
    </vehicle>
    <vehicle id="149" depart="7.45" departLane="best">
        <route edges="1/1to2/1 2/1to1/1 1/1to0/1"/>
    </vehicle>
    <vehicle id="150" depart="7.50" departLane="best">
        <route edges="2/1to1/1 1/1to1/2 1/2to1/3 1/3to2/3 2/3to3/3 3/3to2/3"/>
    </vehicle>
    <vehicle id="151" depart="7.55" departLane="best">
        <route edges="3/3to2/3 2/3to2/2 2/2to2/1 2/1to2/0 2/0to1/0"/>
    </vehicle>
    <vehicle id="152" depart="7.60" departLane="best">
        <route edges="2/1to3/1 3/1to2/1 2/1to2/0 2/0to1/0"/>
    </vehicle>
    <vehicle id="153" depart="7.65" departLane="best">
        <route edges="0/2to0/1 0/1to0/0 0/0to1/0"/>
    </vehicle>
    <vehicle id="154" depart="7.70" departLane="best">
        <route edges="3/2to3/1 3/1to2/1 2/1to1/1 1/1to0/1 0/1to0/2 0/2to0/3 0/3to1/3"/>
    </vehicle>
    <vehicle id="155" depart="7.75" departLane="best">
        <route edges="1/0to2/0 2/0to1/0 1/0to0/0 0/0to0/1 0/1to0/2 0/2to1/2"/>
    </vehicle>
    <vehicle id="156" depart="7.80" departLane="best">
        <route edges="1/1to1/2 1/2to2/2 2/2to3/2 3/2to3/1"/>
    </vehicle>
    <vehicle id="157" depart="7.85" departLane="best">
        <route edges="3/3to3/2 3/2to2/2"/>
    </vehicle>
    <vehicle id="158" depart="7.90" departLane="best">
        <route edges="0/0to1/0 1/0to0/0 0/0to0/1 0/1to0/2 0/2to0/1"/>
    </vehicle>
    <vehicle id="159" depart="7.95" departLane="best">
        <route edges="1/1to2/1 2/1to1/1 1/1to0/1 0/1to0/2 0/2to0/1"/>
    </vehicle>
    <vehicle id="160" depart="8.00" departLane="best">
        <route edges="0/2to0/3 0/3to1/3 1/3to2/3 2/3to3/3"/>
    </vehicle>
    <vehicle id="161" depart="8.05" departLane="best">
        <route edges="3/2to2/2 2/2to2/1 2/1to2/0 2/0to3/0"/>
    </vehicle>
    <vehicle id="162" depart="8.10" departLane="best">
        <route edges="0/0to0/1 0/1to0/2 0/2to1/2 1/2to2/2 2/2to3/2 3/2to3/1"/>
    </vehicle>
    <vehicle id="163" depart="8.15" departLane="best">
        <route edges="1/2to0/2 0/2to0/1 0/1to1/1 1/1to2/1"/>
    </vehicle>
    <vehicle id="164" depart="8.20" departLane="best">
        <route edges="3/0to3/1 3/1to2/1 2/1to2/2 2/2to1/2"/>
    </vehicle>
    <vehicle id="165" depart="8.25" departLane="best">
        <route edges="1/0to0/0 0/0to1/0 1/0to2/0 2/0to1/0"/>
    </vehicle>
    <vehicle id="166" depart="8.30" departLane="best">
        <route edges="2/2to1/2 1/2to1/3 1/3to2/3 2/3to2/2"/>
    </vehicle>
    <vehicle id="167" depart="8.35" departLane="best">
        <route edges="0/2to1/2 1/2to1/1 1/1to1/0 1/0to2/0 2/0to1/0"/>
    </vehicle>
    <vehicle id="168" depart="8.40" departLane="best">
        <route edges="1/3to2/3 2/3to1/3 1/3to1/2 1/2to2/2"/>
    </vehicle>
    <vehicle id="169" depart="8.45" departLane="best">
        <route edges="0/1to0/2 0/2to0/1 0/1to0/0 0/0to1/0 1/0to2/0 2/0to3/0"/>
    </vehicle>
    <vehicle id="170" depart="8.50" departLane="best">
        <route edges="0/3to0/2 0/2to0/3 0/3to1/3"/>
    </vehicle>
    <vehicle id="171" depart="8.55" departLane="best">
        <route edges="1/0to2/0 2/0to1/0 1/0to0/0 0/0to0/1 0/1to0/2 0/2to0/1"/>
    </vehicle>
    <vehicle id="172" depart="8.60" departLane="best">
        <route edges="2/1to2/2 2/2to2/1 2/1to2/0"/>
    </vehicle>
    <vehicle id="173" depart="8.65" departLane="best">
        <route edges="2/1to2/2 2/2to2/1"/>
    </vehicle>
    <vehicle id="174" depart="8.70" departLane="best">
        <route edges="2/1to2/0 2/0to1/0 1/0to0/0 0/0to0/1 0/1to0/2 0/2to0/3"/>
    </vehicle>
    <vehicle id="175" depart="8.75" departLane="best">
        <route edges="1/1to2/1 2/1to1/1 1/1to1/2 1/2to0/2"/>
    </vehicle>
    <vehicle id="176" depart="8.80" departLane="best">
        <route edges="2/1to2/2 2/2to2/1"/>
    </vehicle>
    <vehicle id="177" depart="8.85" departLane="best">
        <route edges="2/1to3/1 3/1to2/1 2/1to2/0 2/0to3/0"/>
    </vehicle>
    <vehicle id="178" depart="8.90" departLane="best">
        <route edges="3/2to2/2 2/2to2/1"/>
    </vehicle>
    <vehicle id="180" depart="9.00" departLane="best">
        <route edges="2/3to3/3 3/3to2/3 2/3to1/3 1/3to1/2 1/2to1/1 1/1to1/0 1/0to0/0"/>
    </vehicle>
    <vehicle id="181" depart="9.05" departLane="best">
        <route edges="3/2to3/1 3/1to3/0 3/0to3/1"/>
    </vehicle>
    <vehicle id="182" depart="9.10" departLane="best">
        <route edges="1/2to2/2 2/2to1/2 1/2to0/2 0/2to0/1 0/1to0/0 0/0to1/0"/>
    </vehicle>
    <vehicle id="183" depart="9.15" departLane="best">
        <route edges="3/1to3/2 3/2to2/2 2/2to1/2"/>
    </vehicle>
    <vehicle id="184" depart="9.20" departLane="best">
        <route edges="3/3to3/2 3/2to2/2 2/2to1/2 1/2to0/2 0/2to0/1 0/1to0/0"/>
    </vehicle>
    <vehicle id="185" depart="9.25" departLane="best">
        <route edges="1/2to1/1 1/1to0/1 0/1to1/1"/>
    </vehicle>
    <vehicle id="186" depart="9.30" departLane="best">
        <route edges="2/2to2/1 2/1to2/2 2/2to2/3 2/3to1/3"/>
    </vehicle>
    <vehicle id="187" depart="9.35" departLane="best">
        <route edges="3/2to3/1 3/1to2/1 2/1to3/1"/>
    </vehicle>
    <vehicle id="188" depart="9.40" departLane="best">
        <route edges="1/0to1/1 1/1to1/2 1/2to1/3 1/3to2/3 2/3to1/3"/>
    </vehicle>
    <vehicle id="189" depart="9.45" departLane="best">
        <route edges="2/1to2/0 2/0to2/1 2/1to3/1 3/1to3/0"/>
    </vehicle>
    <vehicle id="190" depart="9.50" departLane="best">
        <route edges="1/3to0/3 0/3to0/2 0/2to1/2 1/2to1/1"/>
    </vehicle>
    <vehicle id="191" depart="9.55" departLane="best">
        <route edges="2/3to3/3 3/3to2/3 2/3to1/3 1/3to1/2 1/2to1/1 1/1to2/1"/>
    </vehicle>
    <vehicle id="192" depart="9.60" departLane="best">
        <route edges="2/1to3/1 3/1to2/1 2/1to1/1 1/1to1/2"/>
    </vehicle>
    <vehicle id="193" depart="9.65" departLane="best">
        <route edges="1/2to0/2 0/2to0/3 0/3to0/2"/>
    </vehicle>
    <vehicle id="194" depart="9.70" departLane="best">
        <route edges="0/2to0/1 0/1to0/0 0/0to1/0 1/0to2/0 2/0to3/0 3/0to3/1"/>
    </vehicle>
    <vehicle id="195" depart="9.75" departLane="best">