<?xml version="1.0"?>
<!-- generated on 2018-05-18 20:22:22.874000 by $Id: randomTrips.py 18756 2015-08-31 19:16:33Z behrisch $
  options: -n input_net.net.xml -e 90 -p 0.15 <doubleminus>trip-attributes=departLane="best"
-->
<trips>
    <trip id="0" depart="0.00" from="86/4" to="-98/1" departLane="best"/>
    <trip id="1" depart="0.15" from="653" to="615/2" departLane="best"/>
    <trip id="2" depart="0.30" from="58/3" to="617/3" departLane="best"/>
    <trip id="3" depart="0.45" from="619/2" to="-523" departLane="best"/>
    <trip id="4" depart="0.60" from="146/1" to="626" departLane="best"/>
    <trip id="5" depart="0.75" from="-620/0" to="-823/0" departLane="best"/>
    <trip id="6" depart="0.90" from="680" to="-127" departLane="best"/>
    <trip id="7" depart="1.05" from="650/1" to="658/0" departLane="best"/>
    <trip id="8" depart="1.20" from="-257/1" to="-55/0" departLane="best"/>
    <trip id="9" depart="1.35" from="63/8" to="-522" departLane="best"/>
    <trip id="10" depart="1.50" from="13/11" to="557" departLane="best"/>
    <trip id="11" depart="1.65" from="62/1" to="6/2" departLane="best"/>
    <trip id="12" depart="1.80" from="67/0" to="565/2" departLane="best"/>
    <trip id="13" depart="1.95" from="705/2" to="624/3" departLane="best"/>
    <trip id="14" depart="2.10" from="111/2" to="144/1" departLane="best"/>
    <trip id="15" depart="2.25" from="579/1" to="707/0" departLane="best"/>
    <trip id="16" depart="2.40" from="712/0" to="41/1" departLane="best"/>
    <trip id="17" depart="2.55" from="579/0" to="-524/2" departLane="best"/>
    <trip id="18" depart="2.70" from="636/1" to="541" departLane="best"/>
    <trip id="19" depart="2.85" from="-81/4" to="687/2" departLane="best"/>
    <trip id="20" depart="3.00" from="610" to="54/0" departLane="best"/>
    <trip id="21" depart="3.15" from="-45/1" to="-112/0" departLane="best"/>
    <trip id="22" depart="3.30" from="80/6" to="44/0" departLane="best"/>
    <trip id="23" depart="3.45" from="93/3" to="44/1" departLane="best"/>
    <trip id="24" depart="3.60" from="472/1" to="578/2" departLane="best"/>
    <trip id="25" depart="3.75" from="-80/2" to="312/2" departLane="best"/>
    <trip id="26" depart="3.90" from="2/6" to="158" departLane="best"/>
    <trip id="27" depart="4.05" from="684/1" to="81/6" departLane="best"/>
    <trip id="28" depart="4.20" from="703/0" to="-81/5" departLane="best"/>
    <trip id="29" depart="4.35" from="615/3" to="111/1" departLane="best"/>
    <trip id="30" depart="4.50" from="628/0" to="290/0" departLane="best"/>
    <trip id="31" depart="4.65" from="-73/0" to="718/1" departLane="best"/>
    <trip id="32" depart="4.80" from="-644" to="125/1" departLane="best"/>
    <trip id="33" depart="4.95" from="-312/5" to="138" departLane="best"/>
    <trip id="34" depart="5.10" from="634/0" to="13/3" departLane="best"/>
    <trip id="35" depart="5.25" from="-571/1" to="210/2" departLane="best"/>
    <trip id="36" depart="5.40" from="-116/0" to="-78/7" departLane="best"/>
    <trip id="37" depart="5.55" from="98/1" to="-80/4" departLane="best"/>
    <trip id="38" depart="5.70" from="82/0" to="709/3" departLane="best"/>
    <trip id="39" depart="5.85" from="-30/1" to="592/3" departLane="best"/>
    <trip id="40" depart="6.00" from="124" to="532/1" departLane="best"/>
    <trip id="41" depart="6.15" from="723" to="100/2" departLane="best"/>
    <trip id="42" depart="6.30" from="617/3" to="39/1" departLane="best"/>
    <trip id="43" depart="6.45" from="129" to="738" departLane="best"/>
    <trip id="44" depart="6.60" from="690/3" to="-491/5" departLane="best"/>
    <trip id="45" depart="6.75" from="104/2" to="160/0" departLane="best"/>
    <trip id="46" depart="6.90" from="209/1" to="575/4" departLane="best"/>
    <trip id="47" depart="7.05" from="-470" to="233/0" departLane="best"/>
    <trip id="48" depart="7.20" from="591/2" to="-58/0" departLane="best"/>
    <trip id="49" depart="7.35" from="81/3" to="670/0" departLane="best"/>
    <trip id="50" depart="7.50" from="87/1" to="-314" departLane="best"/>
    <trip id="51" depart="7.65" from="-57" to="737/1" departLane="best"/>
    <trip id="52" depart="7.80" from="548/0" to="42/2" departLane="best"/>
    <trip id="53" depart="7.95" from="-470" to="655/0" departLane="best"/>
    <trip id="54" depart="8.10" from="593" to="595/1" departLane="best"/>
    <trip id="55" depart="8.25" from="42/1" to="547/0" departLane="best"/>
    <trip id="56" depart="8.40" from="613" to="-125/1" departLane="best"/>
    <trip id="57" depart="8.55" from="662/0" to="600" departLane="best"/>
    <trip id="58" depart="8.70" from="706/2" to="612/1" departLane="best"/>
    <trip id="59" depart="8.85" from="145/0" to="8/2" departLane="best"/>
    <trip id="60" depart="9.00" from="-58/4" to="701/0" departLane="best"/>
    <trip id="61" depart="9.15" from="587/0" to="658/3" departLane="best"/>
    <trip id="62" depart="9.30" from="638" to="87/1" departLane="best"/>
    <trip id="63" depart="9.45" from="206" to="-331" departLane="best"/>
    <trip id="64" depart="9.60" from="63/0" to="-822" departLane="best"/>
    <trip id="65" depart="9.75" from="591/1" to="667/4" departLane="best"/>
    <trip id="66" depart="9.90" from="712/2" to="701/2" departLane="best"/>
    <trip id="67" depart="10.05" from="-39/1" to="114/1" departLane="best"/>
    <trip id="68" depart="10.20" from="575/3" to="78/0" departLane="best"/>
    <trip id="69" depart="10.35" from="605/1" to="524/0" departLane="best"/>
    <trip id="70" depart="10.50" from="612/0" to="-63/0" departLane="best"/>
    <trip id="71" depart="10.65" from="-768/0" to="697/4" departLane="best"/>
    <trip id="72" depart="10.80" from="587/0" to="54/0" departLane="best"/>
    <trip id="73" depart="10.95" from="611" to="209/5" departLane="best"/>
    <trip id="74" depart="11.10" from="575/2" to="719/4" departLane="best"/>
    <trip id="75" depart="11.25" from="622" to="-768/7" departLane="best"/>
    <trip id="76" depart="11.40" from="-522" to="676" departLane="best"/>
    <trip id="77" depart="11.55" from="13/10" to="756" departLane="best"/>
    <trip id="78" depart="11.70" from="-755" to="733" departLane="best"/>
    <trip id="79" depart="11.85" from="71/1" to="-472/1" departLane="best"/>
    <trip id="80" depart="12.00" from="-41/1" to="701/0" departLane="best"/>
    <trip id="81" depart="12.15" from="592/2" to="45/0" departLane="best"/>
    <trip id="82" depart="12.30" from="-100/2" to="-109/2" departLane="best"/>
    <trip id="83" depart="12.45" from="78/3" to="13/4" departLane="best"/>
    <trip id="84" depart="12.60" from="-30/0" to="8/0" departLane="best"/>
    <trip id="85" depart="12.75" from="619/7" to="-110/1" departLane="best"/>
    <trip id="86" depart="12.90" from="115" to="-768/3" departLane="best"/>
    <trip id="87" depart="13.05" from="196/3" to="71/0" departLane="best"/>
    <trip id="88" depart="13.20" from="643" to="-54/2" departLane="best"/>
    <trip id="89" depart="13.35" from="-93/2" to="-650/0" departLane="best"/>
    <trip id="90" depart="13.50" from="687/0" to="-78/10" departLane="best"/>
    <trip id="91" depart="13.65" from="-749" to="130/0" departLane="best"/>
    <trip id="92" depart="13.80" from="234/1" to="590/0" departLane="best"/>
    <trip id="93" depart="13.95" from="683/0" to="32/1" departLane="best"/>
    <trip id="94" depart="14.10" from="100/1" to="6/2" departLane="best"/>
    <trip id="95" depart="14.25" from="703/1" to="-96" departLane="best"/>
    <trip id="96" depart="14.40" from="-44/1" to="590/2" departLane="best"/>
    <trip id="97" depart="14.55" from="-823/2" to="-55/1" departLane="best"/>
    <trip id="98" depart="14.70" from="13/9" to="-768/6" departLane="best"/>
    <trip id="99" depart="14.85" from="558/1" to="144/2" departLane="best"/>
    <trip id="100" depart="15.00" from="-111/0" to="312/4" departLane="best"/>
    <trip id="101" depart="15.15" from="-36" to="12/2" departLane="best"/>
    <trip id="102" depart="15.30" from="-234/0" to="234/2" departLane="best"/>
    <trip id="103" depart="15.45" from="80/2" to="11/6" departLane="best"/>
    <trip id="104" depart="15.60" from="-67/3" to="602/2" departLane="best"/>
    <trip id="105" depart="15.75" from="539/1" to="43" departLane="best"/>
    <trip id="106" depart="15.90" from="-196/2" to="-472/1" departLane="best"/>
    <trip id="107" depart="16.05" from="58/2" to="549" departLane="best"/>
    <trip id="108" depart="16.20" from="-578/0" to="50/1" departLane="best"/>
    <trip id="109" depart="16.35" from="-110/1" to="110/0" departLane="best"/>
    <trip id="110" depart="16.50" from="13/6" to="683/2" departLane="best"/>
    <trip id="111" depart="16.65" from="117/0" to="697/3" departLane="best"/>
    <trip id="112" depart="16.80" from="63/0" to="768/7" departLane="best"/>
    <trip id="113" depart="16.95" from="78/1" to="662/2" departLane="best"/>
    <trip id="114" depart="17.10" from="78/4" to="39/0" departLane="best"/>
    <trip id="115" depart="17.25" from="13/6" to="-206" departLane="best"/>
    <trip id="116" depart="17.40" from="579/1" to="625/0" departLane="best"/>
    <trip id="117" depart="17.55" from="-768/5" to="-121/1" departLane="best"/>
    <trip id="118" depart="17.70" from="70" to="-117/0" departLane="best"/>
    <trip id="119" depart="17.85" from="768/0" to="636/0" departLane="best"/>
    <trip id="120" depart="18.00" from="655/1" to="-768/4" departLane="best"/>
    <trip id="121" depart="18.15" from="-13/7" to="127" departLane="best"/>
    <trip id="122" depart="18.30" from="-580/2" to="71/0" departLane="best"/>
    <trip id="123" depart="18.45" from="601/0" to="2/2" departLane="best"/>
    <trip id="124" depart="18.60" from="-823/2" to="647" departLane="best"/>
    <trip id="125" depart="18.75" from="617/0" to="564/1" departLane="best"/>
    <trip id="126" depart="18.90" from="-80/5" to="-108" departLane="best"/>
    <trip id="127" depart="19.05" from="70" to="2/5" departLane="best"/>
    <trip id="128" depart="19.20" from="707/0" to="-262" departLane="best"/>
    <trip id="129" depart="19.35" from="27/3" to="-233/0" departLane="best"/>
    <trip id="130" depart="19.50" from="-203/1" to="-6/2" departLane="best"/>
    <trip id="131" depart="19.65" from="-62/1" to="-768/5" departLane="best"/>
    <trip id="132" depart="19.80" from="80/4" to="547/0" departLane="best"/>
    <trip id="133" depart="19.95" from="314" to="611" departLane="best"/>
    <trip id="134" depart="20.10" from="-650/1" to="578/2" departLane="best"/>
    <trip id="135" depart="20.25" from="523" to="674/1" departLane="best"/>
    <trip id="136" depart="20.40" from="587/0" to="12/2" departLane="best"/>
    <trip id="137" depart="20.55" from="-112/1" to="-768/7" departLane="best"/>
    <trip id="138" depart="20.70" from="-73/1" to="11/2" departLane="best"/>
    <trip id="139" depart="20.85" from="-6/2" to="822" departLane="best"/>
    <trip id="140" depart="21.00" from="-472/1" to="735" departLane="best"/>
    <trip id="141" depart="21.15" from="-120/1" to="39/1" departLane="best"/>
    <trip id="142" depart="21.30" from="550" to="72/0" departLane="best"/>
    <trip id="143" depart="21.45" from="-470" to="683/0" departLane="best"/>
    <trip id="144" depart="21.60" from="290/0" to="111/1" departLane="best"/>
    <trip id="145" depart="21.75" from="605/1" to="-63/4" departLane="best"/>
    <trip id="146" depart="21.90" from="654/1" to="-524/2" departLane="best"/>
    <trip id="147" depart="22.05" from="290/1" to="613" departLane="best"/>
    <trip id="148" depart="22.20" from="205/1" to="81/5" departLane="best"/>
    <trip id="149" depart="22.35" from="601/0" to="547/1" departLane="best"/>
    <trip id="150" depart="22.50" from="-579/1" to="741/0" departLane="best"/>
    <trip id="151" depart="22.65" from="675" to="-521" departLane="best"/>
    <trip id="152" depart="22.80" from="-196/3" to="-709/0" departLane="best"/>
    <trip id="153" depart="22.95" from="115" to="-78/4" departLane="best"/>
    <trip id="154" depart="23.10" from="-67/0" to="634/3" departLane="best"/>
    <trip id="155" depart="23.25" from="-234/0" to="-312/2" departLane="best"/>
    <trip id="156" depart="23.40" from="13/7" to="-530/0" departLane="best"/>
    <trip id="157" depart="23.55" from="50/0" to="-78/1" departLane="best"/>
    <trip id="158" depart="23.70" from="-6/1" to="583" departLane="best"/>
    <trip id="159" depart="23.85" from="34" to="131" departLane="best"/>
    <trip id="160" depart="24.00" from="137/0" to="144/0" departLane="best"/>
    <trip id="161" depart="24.15" from="-111/2" to="-290/0" departLane="best"/>
    <trip id="162" depart="24.30" from="58/0" to="586/1" departLane="best"/>
    <trip id="163" depart="24.45" from="-58/2" to="-293/1" departLane="best"/>
    <trip id="164" depart="24.60" from="196/4" to="2/4" departLane="best"/>
    <trip id="165" depart="24.75" from="-209/3" to="707/0" departLane="best"/>
    <trip id="166" depart="24.90" from="657/1" to="661/1" departLane="best"/>
    <trip id="167" depart="25.05" from="674/2" to="658/4" departLane="best"/>
    <trip id="168" depart="25.20" from="83" to="92/1" departLane="best"/>
    <trip id="169" depart="25.35" from="-205/0" to="2/0" departLane="best"/>
    <trip id="170" depart="25.50" from="78/1" to="646/1" departLane="best"/>
    <trip id="171" depart="25.65" from="524/0" to="558/0" departLane="best"/>
    <trip id="172" depart="25.80" from="6/0" to="635" departLane="best"/>
    <trip id="173" depart="25.95" from="-92/2" to="620/1" departLane="best"/>
    <trip id="174" depart="26.10" from="-104/2" to="679" departLane="best"/>
    <trip id="175" depart="26.25" from="587/2" to="615/9" departLane="best"/>
    <trip id="176" depart="26.40" from="660/0" to="-783/0" departLane="best"/>
    <trip id="177" depart="26.55" from="768/8" to="719/4" departLane="best"/>
    <trip id="178" depart="26.70" from="615/4" to="732" departLane="best"/>
    <trip id="179" depart="26.85" from="2/0" to="74" departLane="best"/>
    <trip id="180" depart="27.00" from="80/5" to="683/0" departLane="best"/>
    <trip id="181" depart="27.15" from="565/1" to="68" departLane="best"/>
    <trip id="182" depart="27.30" from="70" to="568/1" departLane="best"/>
    <trip id="183" depart="27.45" from="6/4" to="664" departLane="best"/>
    <trip id="184" depart="27.60" from="820" to="684/0" departLane="best"/>
    <trip id="185" depart="27.75" from="-395" to="565/1" departLane="best"/>
    <trip id="186" depart="27.90" from="-63/8" to="108" departLane="best"/>
    <trip id="187" depart="28.05" from="609/1" to="-79/1" departLane="best"/>
    <trip id="188" depart="28.20" from="687/1" to="73/0" departLane="best"/>
    <trip id="189" depart="28.35" from="332/2" to="83" departLane="best"/>
    <trip id="190" depart="28.50" from="-123" to="41/1" departLane="best"/>
    <trip id="191" depart="28.65" from="662/1" to="491/1" departLane="best"/>
    <trip id="192" depart="28.80" from="-86/3" to="-524/2" departLane="best"/>
    <trip id="193" depart="28.95" from="-530/1" to="605/0" departLane="best"/>
    <trip id="194" depart="29.10" from="-209/2" to="204/2" departLane="best"/>
    <trip id="195" depart="29.25" from="688" to="634/0" departLane="best"/>
    <trip id="196" depart="29.40" from="-130/1" to="657/2" departLane="best"/>
    <trip id="197" depart="29.55" from="282/0" to="128" departLane="best"/>
    <trip id="198" depart="29.70" from="619/7" to="697/1" departLane="best"/>
    <trip id="199" depart="29.85" from="-58/2" to="532/1" departLane="best"/>
    <trip id="200" depart="30.00" from="80/3" to="583" departLane="best"/>
    <trip id="201" depart="30.15" from="-290/2" to="104/3" departLane="best"/>
    <trip id="202" depart="30.30" from="565/1" to="636/1" departLane="best"/>
    <trip id="203" depart="30.45" from="650/0" to="-578/1" departLane="best"/>
    <trip id="204" depart="30.60" from="542" to="-823/0" departLane="best"/>
    <trip id="205" depart="30.75" from="666/0" to="583" departLane="best"/>
    <trip id="206" depart="30.90" from="719/1" to="13/6" departLane="best"/>
    <trip id="207" depart="31.05" from="117/0" to="673/1" departLane="best"/>
    <trip id="208" depart="31.20" from="-13/6" to="586/1" departLane="best"/>
    <trip id="209" depart="31.35" from="-80/6" to="612/0" departLane="best"/>
    <trip id="210" depart="31.50" from="11/3" to="-580/2" departLane="best"/>
    <trip id="211" depart="31.65" from="12/0" to="683/1" departLane="best"/>
    <trip id="212" depart="31.80" from="654/2" to="142" departLane="best"/>
    <trip id="213" depart="31.95" from="-823/3" to="-768/4" departLane="best"/>
    <trip id="214" depart="32.10" from="619/1" to="78/2" departLane="best"/>
    <trip id="215" depart="32.25" from="827/0" to="658/3" departLane="best"/>
    <trip id="216" depart="32.40" from="-38/1" to="-13/3" departLane="best"/>
    <trip id="217" depart="32.55" from="685/3" to="-6/4" departLane="best"/>
    <trip id="218" depart="32.70" from="695/0" to="73/0" departLane="best"/>
    <trip id="219" depart="32.85" from="-823/2" to="-491/4" departLane="best"/>
    <trip id="220" depart="33.00" from="12/2" to="608" departLane="best"/>
    <trip id="221" depart="33.15" from="586/1" to="-116/1" departLane="best"/>
    <trip id="222" depart="33.30" from="78/4" to="27/1" departLane="best"/>
    <trip id="223" depart="33.45" from="160/1" to="205/1" departLane="best"/>
    <trip id="224" depart="33.60" from="590/0" to="39/0" departLane="best"/>
    <trip id="225" depart="33.75" from="233/1" to="-650/0" departLane="best"/>
    <trip id="226" depart="33.90" from="71/0" to="783/0" departLane="best"/>
    <trip id="227" depart="34.05" from="53" to="695/0" departLane="best"/>
    <trip id="228" depart="34.20" from="674/0" to="576/0" departLane="best"/>
    <trip id="229" depart="34.35" from="-579/1" to="-579/2" departLane="best"/>
    <trip id="230" depart="34.50" from="700/1" to="62/1" departLane="best"/>
    <trip id="231" depart="34.65" from="-49/1" to="-36" departLane="best"/>
    <trip id="232" depart="34.80" from="684/1" to="556" departLane="best"/>
    <trip id="233" depart="34.95" from="549" to="140/1" departLane="best"/>
    <trip id="234" depart="35.10" from="71/1" to="103/1" departLane="best"/>
    <trip id="235" depart="35.25" from="593" to="141" departLane="best"/>
    <trip id="236" depart="35.40" from="76/0" to="81/4" departLane="best"/>
    <trip id="237" depart="35.55" from="553" to="615/8" departLane="best"/>
    <trip id="238" depart="35.70" from="628/3" to="491/6" departLane="best"/>
    <trip id="239" depart="35.85" from="103/0" to="81/8" departLane="best"/>
    <trip id="240" depart="36.00" from="554/0" to="650/1" departLane="best"/>
    <trip id="241" depart="36.15" from="687/0" to="821" departLane="best"/>
    <trip id="242" depart="36.30" from="112/3" to="233/2" departLane="best"/>
    <trip id="243" depart="36.45" from="45/1" to="93/0" departLane="best"/>
    <trip id="244" depart="36.60" from="-99" to="491/3" departLane="best"/>
    <trip id="245" depart="36.75" from="553" to="783/0" departLane="best"/>
    <trip id="246" depart="36.90" from="579/1" to="636/2" departLane="best"/>
    <trip id="247" depart="37.05" from="692/2" to="619/7" departLane="best"/>
    <trip id="248" depart="37.20" from="602/0" to="-491/2" departLane="best"/>
    <trip id="249" depart="37.35" from="584" to="57" departLane="best"/>
    <trip id="250" depart="37.50" from="-13/3" to="76/1" departLane="best"/>
    <trip id="251" depart="37.65" from="-783/0" to="700/1" departLane="best"/>
    <trip id="252" depart="37.80" from="-104/2" to="736" departLane="best"/>
    <trip id="253" depart="37.95" from="314" to="-158" departLane="best"/>
    <trip id="254" depart="38.10" from="-290/2" to="395" departLane="best"/>
    <trip id="255" depart="38.25" from="-38/0" to="109/2" departLane="best"/>
    <trip id="256" depart="38.40" from="-580/0" to="571/0" departLane="best"/>
    <trip id="257" depart="38.55" from="201" to="4" departLane="best"/>
    <trip id="258" depart="38.70" from="670/3" to="282/0" departLane="best"/>
    <trip id="259" depart="38.85" from="-74" to="-117/0" departLane="best"/>
    <trip id="260" depart="39.00" from="575/3" to="684/1" departLane="best"/>
    <trip id="261" depart="39.15" from="742" to="91/2" departLane="best"/>
    <trip id="262" depart="39.30" from="119" to="591/1" departLane="best"/>
    <trip id="263" depart="39.45" from="705/1" to="312/1" departLane="best"/>
    <trip id="264" depart="39.60" from="13/3" to="-636/1" departLane="best"/>
    <trip id="265" depart="39.75" from="43" to="702" departLane="best"/>
    <trip id="266" depart="39.90" from="-63/0" to="-121/0" departLane="best"/>
    <trip id="267" depart="40.05" from="54/1" to="-58/3" departLane="best"/>
    <trip id="268" depart="40.20" from="80/3" to="575/1" departLane="best"/>
    <trip id="269" depart="40.35" from="-44/0" to="524/1" departLane="best"/>
    <trip id="270" depart="40.50" from="736" to="120/0" departLane="best"/>
    <trip id="271" depart="40.65" from="-636/1" to="667/3" departLane="best"/>
    <trip id="272" depart="40.80" from="199" to="-78/2" departLane="best"/>
    <trip id="273" depart="40.95" from="822" to="-44/0" departLane="best"/>
    <trip id="274" depart="41.10" from="-579/0" to="491/0" departLane="best"/>
    <trip id="275" depart="41.25" from="677" to="-82/0" departLane="best"/>
    <trip id="276" depart="41.40" from="54/0" to="-113/1" departLane="best"/>
    <trip id="277" depart="41.55" from="29/3" to="697/3" departLane="best"/>
    <trip id="278" depart="41.70" from="686" to="-71/1" departLane="best"/>
    <trip id="279" depart="41.85" from="13/3" to="629/0" departLane="best"/>
    <trip id="280" depart="42.00" from="690/1" to="706/0" departLane="best"/>
    <trip id="281" depart="42.15" from="-36" to="547/0" departLane="best"/>
    <trip id="282" depart="42.30" from="-472/1" to="-332/2" departLane="best"/>
    <trip id="283" depart="42.45" from="-290/1" to="665/0" departLane="best"/>
    <trip id="284" depart="42.60" from="491/4" to="-42/0" departLane="best"/>
    <trip id="285" depart="42.75" from="709/4" to="681" departLane="best"/>
    <trip id="286" depart="42.90" from="712/0" to="-79/0" departLane="best"/>
    <trip id="287" depart="43.05" from="-122/1" to="575/2" departLane="best"/>
    <trip id="288" depart="43.20" from="741/0" to="27/1" departLane="best"/>
    <trip id="289" depart="43.35" from="-103/0" to="41/1" departLane="best"/>
    <trip id="290" depart="43.50" from="685/3" to="627/1" departLane="best"/>
    <trip id="291" depart="43.65" from="63/3" to="29/0" departLane="best"/>
    <trip id="292" depart="43.80" from="-50/0" to="542" departLane="best"/>
    <trip id="293" depart="43.95" from="70" to="7/1" departLane="best"/>
    <trip id="294" depart="44.10" from="-29/5" to="548/1" departLane="best"/>
    <trip id="295" depart="44.25" from="655/0" to="666/1" departLane="best"/>
    <trip id="296" depart="44.40" from="602/1" to="-45/0" departLane="best"/>
    <trip id="297" depart="44.55" from="695/0" to="-698/0" departLane="best"/>
    <trip id="298" depart="44.70" from="580/1" to="-60/0" departLane="best"/>
    <trip id="299" depart="44.85" from="617/6" to="601/0" departLane="best"/>
    <trip id="300" depart="45.00" from="-109/2" to="-73/1" departLane="best"/>
    <trip id="301" depart="45.15" from="-125/1" to="196/3" departLane="best"/>
    <trip id="302" depart="45.30" from="63/9" to="654/1" departLane="best"/>
    <trip id="303" depart="45.45" from="29/1" to="621" departLane="best"/>
    <trip id="304" depart="45.60" from="-46" to="-104/1" departLane="best"/>
    <trip id="305" depart="45.75" from="717/1" to="-822" departLane="best"/>
    <trip id="306" depart="45.90" from="575/3" to="-80/2" departLane="best"/>
    <trip id="307" depart="46.05" from="137/0" to="80/1" departLane="best"/>
    <trip id="308" depart="46.20" from="-312/2" to="768/7" departLane="best"/>
    <trip id="309" depart="46.35" from="670/2" to="604/1" departLane="best"/>
    <trip id="310" depart="46.50" from="209/3" to="93/0" departLane="best"/>
    <trip id="311" depart="46.65" from="615/0" to="-331" departLane="best"/>
    <trip id="312" depart="46.80" from="-204/1" to="-120/0" departLane="best"/>
    <trip id="313" depart="46.95" from="674/2" to="39/0" departLane="best"/>
    <trip id="314" depart="47.10" from="648" to="575/1" departLane="best"/>
    <trip id="315" depart="47.25" from="98/1" to="-640/2" departLane="best"/>
    <trip id="316" depart="47.40" from="13/2" to="57" departLane="best"/>
    <trip id="317" depart="47.55" from="7/2" to="109/1" departLane="best"/>
    <trip id="318" depart="47.70" from="100/0" to="-13/5" departLane="best"/>
    <trip id="319" depart="47.85" from="-471/1" to="137/1" departLane="best"/>
    <trip id="320" depart="48.00" from="61" to="49/0" departLane="best"/>
    <trip id="321" depart="48.15" from="-78/8" to="582/0" departLane="best"/>
    <trip id="322" depart="48.30" from="697/0" to="-80/0" departLane="best"/>
    <trip id="323" depart="48.45" from="-530/1" to="619/4" departLane="best"/>
    <trip id="324" depart="48.60" from="3/1" to="39/0" departLane="best"/>
    <trip id="325" depart="48.75" from="653" to="-125/1" departLane="best"/>
    <trip id="326" depart="48.90" from="717/1" to="158" departLane="best"/>
    <trip id="327" depart="49.05" from="604/1" to="617/5" departLane="best"/>
    <trip id="328" depart="49.20" from="-750" to="605/0" departLane="best"/>
    <trip id="329" depart="49.35" from="-13/5" to="700/1" departLane="best"/>
    <trip id="330" depart="49.50" from="-104/2" to="-87/0" departLane="best"/>
    <trip id="331" depart="49.65" from="29/0" to="125/0" departLane="best"/>
    <trip id="332" depart="49.80" from="-471/1" to="714" departLane="best"/>
    <trip id="333" depart="49.95" from="-110/1" to="636/1" departLane="best"/>
    <trip id="334" depart="50.10" from="160/1" to="586/1" departLane="best"/>
    <trip id="335" depart="50.25" from="695/0" to="-524/2" departLane="best"/>
    <trip id="336" depart="50.40" from="577" to="-124" departLane="best"/>
    <trip id="337" depart="50.55" from="-81/8" to="582/2" departLane="best"/>
    <trip id="338" depart="50.70" from="63/2" to="673/1" departLane="best"/>
    <trip id="339" depart="50.85" from="3/0" to="827/1" departLane="best"/>
    <trip id="340" depart="51.00" from="658/0" to="-111/0" departLane="best"/>
    <trip id="341" depart="51.15" from="692/1" to="662/1" departLane="best"/>
    <trip id="342" depart="51.30" from="79/2" to="80/6" departLane="best"/>
    <trip id="343" depart="51.45" from="-92/2" to="-85" departLane="best"/>
    <trip id="344" depart="51.60" from="11/1" to="-530/1" departLane="best"/>
    <trip id="345" depart="51.75" from="601/1" to="30/0" departLane="best"/>
    <trip id="346" depart="51.90" from="701/0" to="-54/0" departLane="best"/>
    <trip id="347" depart="52.05" from="491/6" to="709/0" departLane="best"/>
    <trip id="348" depart="52.20" from="7/1" to="715/1" departLane="best"/>
    <trip id="349" depart="52.35" from="-80/6" to="620/0" departLane="best"/>
    <trip id="350" depart="52.50" from="-79/1" to="619/2" departLane="best"/>
    <trip id="351" depart="52.65" from="12/1" to="621" departLane="best"/>
    <trip id="352" depart="52.80" from="658/1" to="78/9" departLane="best"/>
    <trip id="353" depart="52.95" from="-63/1" to="719/2" departLane="best"/>
    <trip id="354" depart="53.10" from="706/1" to="63/2" departLane="best"/>
    <trip id="355" depart="53.25" from="768/4" to="11/2" departLane="best"/>
    <trip id="356" depart="53.40" from="93/0" to="-110/0" departLane="best"/>
    <trip id="357" depart="53.55" from="203/0" to="6/3" departLane="best"/>
    <trip id="358" depart="53.70" from="732" to="86/0" departLane="best"/>
    <trip id="359" depart="53.85" from="63/2" to="-112/3" departLane="best"/>
    <trip id="360" depart="54.00" from="620/0" to="-823/2" departLane="best"/>
    <trip id="361" depart="54.15" from="8/2" to="-83" departLane="best"/>
    <trip id="362" depart="54.30" from="718/0" to="67/3" departLane="best"/>
    <trip id="363" depart="54.45" from="628/1" to="2/2" departLane="best"/>
    <trip id="364" depart="54.60" from="471/0" to="607" departLane="best"/>
    <trip id="365" depart="54.75" from="737/0" to="682" departLane="best"/>
    <trip id="366" depart="54.90" from="549" to="96" departLane="best"/>
    <trip id="367" depart="55.05" from="-471/0" to="-204/2" departLane="best"/>
    <trip id="368" depart="55.20" from="-123" to="36" departLane="best"/>
    <trip id="369" depart="55.35" from="32/2" to="546" departLane="best"/>
    <trip id="370" depart="55.50" from="679" to="696/1" departLane="best"/>
    <trip id="371" depart="55.65" from="719/1" to="599" departLane="best"/>
    <trip id="372" depart="55.80" from="701/1" to="80/0" departLane="best"/>
    <trip id="373" depart="55.95" from="821" to="158" departLane="best"/>
    <trip id="374" depart="56.10" from="-204/3" to="-709/2" departLane="best"/>
    <trip id="375" depart="56.25" from="712/1" to="-78/9" departLane="best"/>
    <trip id="376" depart="56.40" from="587/0" to="-30/0" departLane="best"/>
    <trip id="377" depart="56.55" from="312/4" to="640/2" departLane="best"/>
    <trip id="378" depart="56.70" from="707/1" to="6/4" departLane="best"/>
    <trip id="379" depart="56.85" from="-571/0" to="547/0" departLane="best"/>
    <trip id="380" depart="57.00" from="63/5" to="580/1" departLane="best"/>
    <trip id="381" depart="57.15" from="-312/4" to="67/0" departLane="best"/>
    <trip id="382" depart="57.30" from="640/0" to="547/0" departLane="best"/>