<additional>
	<vType id="RSU" color="255,0,0" guiShape="bus"/>

	<vehicle id="600" type="RSU" depart="0" departPos="260.43" color="255,0,0">
		<route edges="666/3"/>
		<stop lane="666/3_0" parking="true" endPos="260.43" until="699"/>
	</vehicle>
	<vehicle id="601" type="RSU" depart="0" departPos="52.39" color="255,0,0">
		<route edges="-768/2"/>
		<stop lane="-768/2_0" parking="true" endPos="52.39" until="699"/>
	</vehicle>
	<vehicle id="602" type="RSU" depart="0" departPos="28.87" color="255,0,0">
		<route edges="-634/4"/>
		<stop lane="-634/4_0" parking="true" endPos="28.87" until="699"/>
	</vehicle>
	<vehicle id="603" type="RSU" depart="0" departPos="305.22" color="255,0,0">
		<route edges="-820"/>
		<stop lane="-820_0" parking="true" endPos="305.22" until="699"/>
	</vehicle>
	<vehicle id="604" type="RSU" depart="0" departPos="6896.26" color="255,0,0">
		<route edges="-709/0"/>
		<stop lane="-709/0_0" parking="true" endPos="6896.26" until="699"/>
	</vehicle>
	<vehicle id="605" type="RSU" depart="0" departPos="8.98" color="255,0,0">
		<route edges="-768/0"/>
		<stop lane="-768/0_0" parking="true" endPos="8.98" until="699"/>
	</vehicle>
	<vehicle id="606" type="RSU" depart="0" departPos="330.59" color="255,0,0">
		<route edges="595/1"/>
		<stop lane="595/1_0" parking="true" endPos="330.59" until="699"/>
	</vehicle>
	<vehicle id="607" type="RSU" depart="0" departPos="517.53" color="255,0,0">
		<route edges="819"/>
		<stop lane="819_0" parking="true" endPos="517.53" until="699"/>
	</vehicle>
	<vehicle id="608" type="RSU" depart="0" departPos="7.38" color="255,0,0">
		<route edges="668/2"/>
		<stop lane="668/2_0" parking="true" endPos="7.38" until="699"/>
	</vehicle>
	<vehicle id="609" type="RSU" depart="0" departPos="569.11" color="255,0,0">
		<route edges="59"/>
		<stop lane="59_0" parking="true" endPos="569.11" until="699"/>
	</vehicle>
	<vehicle id="610" type="RSU" depart="0" departPos="88.94" color="255,0,0">
		<route edges="619/1"/>
		<stop lane="619/1_0" parking="true" endPos="88.94" until="699"/>
	</vehicle>
	<vehicle id="611" type="RSU" depart="0" departPos="40.21" color="255,0,0">
		<route edges="80/1"/>
		<stop lane="80/1_0" parking="true" endPos="40.21" until="699"/>
	</vehicle>
	<vehicle id="612" type="RSU" depart="0" departPos="21.35" color="255,0,0">
		<route edges="637"/>
		<stop lane="637_0" parking="true" endPos="21.35" until="699"/>
	</vehicle>
	<vehicle id="613" type="RSU" depart="0" departPos="26.92" color="255,0,0">
		<route edges="716/0"/>
		<stop lane="716/0_0" parking="true" endPos="26.92" until="699"/>
	</vehicle>
	<vehicle id="614" type="RSU" depart="0" departPos="35.57" color="255,0,0">
		<route edges="-49/1"/>
		<stop lane="-49/1_0" parking="true" endPos="35.57" until="699"/>
	</vehicle>
	<vehicle id="615" type="RSU" depart="0" departPos="19.1" color="255,0,0">
		<route edges="557"/>
		<stop lane="557_0" parking="true" endPos="19.1" until="699"/>
	</vehicle>
	<vehicle id="616" type="RSU" depart="0" departPos="1080.8" color="255,0,0">
		<route edges="704"/>
		<stop lane="704_0" parking="true" endPos="1080.8" until="699"/>
	</vehicle>
	<vehicle id="617" type="RSU" depart="0" departPos="808.81" color="255,0,0">
		<route edges="566"/>
		<stop lane="566_0" parking="true" endPos="808.81" until="699"/>
	</vehicle>
	<vehicle id="618" type="RSU" depart="0" departPos="63.83" color="255,0,0">
		<route edges="-209/2"/>
		<stop lane="-209/2_0" parking="true" endPos="63.83" until="699"/>
	</vehicle>
	<vehicle id="619" type="RSU" depart="0" departPos="13.57" color="255,0,0">
		<route edges="491/3"/>
		<stop lane="491/3_0" parking="true" endPos="13.57" until="699"/>
	</vehicle>
	<vehicle id="620" type="RSU" depart="0" departPos="40.78" color="255,0,0">
		<route edges="581/1"/>
		<stop lane="581/1_0" parking="true" endPos="40.78" until="699"/>
	</vehicle>
	<vehicle id="621" type="RSU" depart="0" departPos="68.02" color="255,0,0">
		<route edges="44/0"/>
		<stop lane="44/0_0" parking="true" endPos="68.02" until="699"/>
	</vehicle>
	<vehicle id="622" type="RSU" depart="0" departPos="6896.26" color="255,0,0">
		<route edges="709/0"/>
		<stop lane="709/0_0" parking="true" endPos="6896.26" until="699"/>
	</vehicle>
	<vehicle id="623" type="RSU" depart="0" departPos="39.51" color="255,0,0">
		<route edges="691/3"/>
		<stop lane="691/3_0" parking="true" endPos="39.51" until="699"/>
	</vehicle>
	<vehicle id="624" type="RSU" depart="0" departPos="371.89" color="255,0,0">
		<route edges="734/0"/>
		<stop lane="734/0_0" parking="true" endPos="371.89" until="699"/>
	</vehicle>
	<vehicle id="625" type="RSU" depart="0" departPos="33.43" color="255,0,0">
		<route edges="605/0"/>
		<stop lane="605/0_0" parking="true" endPos="33.43" until="699"/>
	</vehicle>
	<vehicle id="626" type="RSU" depart="0" departPos="543.26" color="255,0,0">
		<route edges="603"/>
		<stop lane="603_0" parking="true" endPos="543.26" until="699"/>
	</vehicle>
	<vehicle id="627" type="RSU" depart="0" departPos="14.64" color="255,0,0">
		<route edges="312/3"/>
		<stop lane="312/3_0" parking="true" endPos="14.64" until="699"/>
	</vehicle>
	<vehicle id="628" type="RSU" depart="0" departPos="65.22" color="255,0,0">
		<route edges="-312/1"/>
		<stop lane="-312/1_0" parking="true" endPos="65.22" until="699"/>
	</vehicle>
	<vehicle id="629" type="RSU" depart="0" departPos="159.13" color="255,0,0">
		<route edges="99"/>
		<stop lane="99_0" parking="true" endPos="159.13" until="699"/>
	</vehicle>
	<vehicle id="630" type="RSU" depart="0" departPos="5.84" color="255,0,0">
		<route edges="-112/1"/>
		<stop lane="-112/1_0" parking="true" endPos="5.84" until="699"/>
	</vehicle>
	<vehicle id="631" type="RSU" depart="0" departPos="160.34" color="255,0,0">
		<route edges="624/3"/>
		<stop lane="624/3_0" parking="true" endPos="160.34" until="699"/>
	</vehicle>
	<vehicle id="632" type="RSU" depart="0" departPos="624.73" color="255,0,0">
		<route edges="-63/0"/>
		<stop lane="-63/0_0" parking="true" endPos="624.73" until="699"/>
	</vehicle>
	<vehicle id="633" type="RSU" depart="0" departPos="38.94" color="255,0,0">
		<route edges="78/3"/>
		<stop lane="78/3_0" parking="true" endPos="38.94" until="699"/>
	</vehicle>
	<vehicle id="634" type="RSU" depart="0" departPos="141.19" color="255,0,0">
		<route edges="81/8"/>
		<stop lane="81/8_0" parking="true" endPos="141.19" until="699"/>
	</vehicle>
	<vehicle id="635" type="RSU" depart="0" departPos="154.37" color="255,0,0">
		<route edges="122/1"/>
		<stop lane="122/1_0" parking="true" endPos="154.37" until="699"/>
	</vehicle>
	<vehicle id="636" type="RSU" depart="0" departPos="18.92" color="255,0,0">
		<route edges="80/5"/>
		<stop lane="80/5_0" parking="true" endPos="18.92" until="699"/>
	</vehicle>
	<vehicle id="637" type="RSU" depart="0" departPos="98.8" color="255,0,0">
		<route edges="78/5"/>
		<stop lane="78/5_0" parking="true" endPos="98.8" until="699"/>
	</vehicle>
	<vehicle id="638" type="RSU" depart="0" departPos="807.26" color="255,0,0">
		<route edges="9"/>
		<stop lane="9_0" parking="true" endPos="807.26" until="699"/>
	</vehicle>
	<vehicle id="639" type="RSU" depart="0" departPos="111.72" color="255,0,0">
		<route edges="312/5"/>
		<stop lane="312/5_0" parking="true" endPos="111.72" until="699"/>
	</vehicle>
	<vehicle id="640" type="RSU" depart="0" departPos="12.08" color="255,0,0">
		<route edges="144/1"/>
		<stop lane="144/1_0" parking="true" endPos="12.08" until="699"/>
	</vehicle>
	<vehicle id="641" type="RSU" depart="0" departPos="136.1" color="255,0,0">
		<route edges="665/1"/>
		<stop lane="665/1_0" parking="true" endPos="136.1" until="699"/>
	</vehicle>
	<vehicle id="642" type="RSU" depart="0" departPos="53.04" color="255,0,0">
		<route edges="675"/>
		<stop lane="675_0" parking="true" endPos="53.04" until="699"/>
	</vehicle>
	<vehicle id="643" type="RSU" depart="0" departPos="56.83" color="255,0,0">
		<route edges="-233/0"/>
		<stop lane="-233/0_0" parking="true" endPos="56.83" until="699"/>
	</vehicle>
	<vehicle id="644" type="RSU" depart="0" departPos="554.98" color="255,0,0">
		<route edges="659/1"/>
		<stop lane="659/1_0" parking="true" endPos="554.98" until="699"/>
	</vehicle>
	<vehicle id="645" type="RSU" depart="0" departPos="111.61" color="255,0,0">
		<route edges="132"/>
		<stop lane="132_0" parking="true" endPos="111.61" until="699"/>
	</vehicle>
	<vehicle id="646" type="RSU" depart="0" departPos="149.06" color="255,0,0">
		<route edges="-78/8"/>
		<stop lane="-78/8_0" parking="true" endPos="149.06" until="699"/>
	</vehicle>
	<vehicle id="647" type="RSU" depart="0" departPos="147.95" color="255,0,0">
		<route edges="145/2"/>
		<stop lane="145/2_0" parking="true" endPos="147.95" until="699"/>
	</vehicle>
	<vehicle id="648" type="RSU" depart="0" departPos="336.26" color="255,0,0">
		<route edges="539/0"/>
		<stop lane="539/0_0" parking="true" endPos="336.26" until="699"/>
	</vehicle>
	<vehicle id="649" type="RSU" depart="0" departPos="162.32" color="255,0,0">
		<route edges="-39/1"/>
		<stop lane="-39/1_0" parking="true" endPos="162.32" until="699"/>
	</vehicle>
	<vehicle id="650" type="RSU" depart="0" departPos="28.12" color="255,0,0">
		<route edges="582/2"/>
		<stop lane="582/2_0" parking="true" endPos="28.12" until="699"/>
	</vehicle>
	<vehicle id="651" type="RSU" depart="0" departPos="176.69" color="255,0,0">
		<route edges="13/3"/>
		<stop lane="13/3_0" parking="true" endPos="176.69" until="699"/>
	</vehicle>
	<vehicle id="652" type="RSU" depart="0" departPos="40.4" color="255,0,0">
		<route edges="-196/1"/>
		<stop lane="-196/1_0" parking="true" endPos="40.4" until="699"/>
	</vehicle>
	<vehicle id="653" type="RSU" depart="0" departPos="18.73" color="255,0,0">
		<route edges="547/1"/>
		<stop lane="547/1_0" parking="true" endPos="18.73" until="699"/>
	</vehicle>
	<vehicle id="654" type="RSU" depart="0" departPos="67.19" color="255,0,0">
		<route edges="-332/1"/>
		<stop lane="-332/1_0" parking="true" endPos="67.19" until="699"/>
	</vehicle>
	<vehicle id="655" type="RSU" depart="0" departPos="254.22" color="255,0,0">
		<route edges="-650/0"/>
		<stop lane="-650/0_0" parking="true" endPos="254.22" until="699"/>
	</vehicle>
	<vehicle id="656" type="RSU" depart="0" departPos="105.27" color="255,0,0">
		<route edges="-257/0"/>
		<stop lane="-257/0_0" parking="true" endPos="105.27" until="699"/>
	</vehicle>
	<vehicle id="657" type="RSU" depart="0" departPos="251.52" color="255,0,0">
		<route edges="-5"/>
		<stop lane="-5_0" parking="true" endPos="251.52" until="699"/>
	</vehicle>
	<vehicle id="658" type="RSU" depart="0" departPos="68.69" color="255,0,0">
		<route edges="636/0"/>
		<stop lane="636/0_0" parking="true" endPos="68.69" until="699"/>
	</vehicle>
	<vehicle id="659" type="RSU" depart="0" departPos="558.89" color="255,0,0">
		<route edges="62/2"/>
		<stop lane="62/2_0" parking="true" endPos="558.89" until="699"/>
	</vehicle>
	<vehicle id="660" type="RSU" depart="0" departPos="114.68" color="255,0,0">
		<route edges="703/2"/>
		<stop lane="703/2_0" parking="true" endPos="114.68" until="699"/>
	</vehicle>
	<vehicle id="661" type="RSU" depart="0" departPos="30.54" color="255,0,0">
		<route edges="204/2"/>
		<stop lane="204/2_0" parking="true" endPos="30.54" until="699"/>
	</vehicle>
	<vehicle id="662" type="RSU" depart="0" departPos="74.22" color="255,0,0">
		<route edges="-209/0"/>
		<stop lane="-209/0_0" parking="true" endPos="74.22" until="699"/>
	</vehicle>
	<vehicle id="663" type="RSU" depart="0" departPos="2.55" color="255,0,0">
		<route edges="81/7"/>
		<stop lane="81/7_0" parking="true" endPos="2.55" until="699"/>
	</vehicle>
	<vehicle id="664" type="RSU" depart="0" departPos="175.91" color="255,0,0">
		<route edges="-472/1"/>
		<stop lane="-472/1_0" parking="true" endPos="175.91" until="699"/>
	</vehicle>
	<vehicle id="665" type="RSU" depart="0" departPos="101.4" color="255,0,0">
		<route edges="114/1"/>
		<stop lane="114/1_0" parking="true" endPos="101.4" until="699"/>
	</vehicle>
	<vehicle id="666" type="RSU" depart="0" departPos="165.32" color="255,0,0">
		<route edges="-233/2"/>
		<stop lane="-233/2_0" parking="true" endPos="165.32" until="699"/>
	</vehicle>
	<vehicle id="667" type="RSU" depart="0" departPos="153.0" color="255,0,0">
		<route edges="619/4"/>
		<stop lane="619/4_0" parking="true" endPos="153.0" until="699"/>
	</vehicle>
	<vehicle id="668" type="RSU" depart="0" departPos="140.56" color="255,0,0">
		<route edges="668/1"/>
		<stop lane="668/1_0" parking="true" endPos="140.56" until="699"/>
	</vehicle>
	<vehicle id="669" type="RSU" depart="0" departPos="37.71" color="255,0,0">
		<route edges="-29/3"/>
		<stop lane="-29/3_0" parking="true" endPos="37.71" until="699"/>
	</vehicle>
	<vehicle id="670" type="RSU" depart="0" departPos="135.32" color="255,0,0">
		<route edges="-29/1"/>
		<stop lane="-29/1_0" parking="true" endPos="135.32" until="699"/>
	</vehicle>
	<vehicle id="671" type="RSU" depart="0" departPos="50.5" color="255,0,0">
		<route edges="8/3"/>
		<stop lane="8/3_0" parking="true" endPos="50.5" until="699"/>
	</vehicle>
	<vehicle id="672" type="RSU" depart="0" departPos="349.24" color="255,0,0">
		<route edges="-13/11"/>
		<stop lane="-13/11_0" parking="true" endPos="349.24" until="699"/>
	</vehicle>
	<vehicle id="673" type="RSU" depart="0" departPos="441.89" color="255,0,0">
		<route edges="673/1"/>
		<stop lane="673/1_0" parking="true" endPos="441.89" until="699"/>
	</vehicle>
	<vehicle id="674" type="RSU" depart="0" departPos="22.85" color="255,0,0">
		<route edges="-634/3"/>
		<stop lane="-634/3_0" parking="true" endPos="22.85" until="699"/>
	</vehicle>
	<vehicle id="675" type="RSU" depart="0" departPos="8.02" color="255,0,0">
		<route edges="619/6"/>
		<stop lane="619/6_0" parking="true" endPos="8.02" until="699"/>
	</vehicle>
	<vehicle id="676" type="RSU" depart="0" departPos="27.63" color="255,0,0">
		<route edges="700/0"/>
		<stop lane="700/0_0" parking="true" endPos="27.63" until="699"/>
	</vehicle>
	<vehicle id="677" type="RSU" depart="0" departPos="93.92" color="255,0,0">
		<route edges="-122/0"/>
		<stop lane="-122/0_0" parking="true" endPos="93.92" until="699"/>
	</vehicle>
	<vehicle id="678" type="RSU" depart="0" departPos="13.32" color="255,0,0">
		<route edges="667/3"/>
		<stop lane="667/3_0" parking="true" endPos="13.32" until="699"/>
	</vehicle>
	<vehicle id="679" type="RSU" depart="0" departPos="255.14" color="255,0,0">
		<route edges="827/0"/>
		<stop lane="827/0_0" parking="true" endPos="255.14" until="699"/>
	</vehicle>
	<vehicle id="680" type="RSU" depart="0" departPos="151.87" color="255,0,0">
		<route edges="674/3"/>
		<stop lane="674/3_0" parking="true" endPos="151.87" until="699"/>
	</vehicle>
	<vehicle id="681" type="RSU" depart="0" departPos="29.1" color="255,0,0">
		<route edges="724"/>
		<stop lane="724_0" parking="true" endPos="29.1" until="699"/>
	</vehicle>
	<vehicle id="682" type="RSU" depart="0" departPos="11.33" color="255,0,0">
		<route edges="548/1"/>
		<stop lane="548/1_0" parking="true" endPos="11.33" until="699"/>
	</vehicle>
	<vehicle id="683" type="RSU" depart="0" departPos="239.85" color="255,0,0">
		<route edges="2/5"/>
		<stop lane="2/5_0" parking="true" endPos="239.85" until="699"/>
	</vehicle>
	<vehicle id="684" type="RSU" depart="0" departPos="137.1" color="255,0,0">
		<route edges="494"/>
		<stop lane="494_0" parking="true" endPos="137.1" until="699"/>
	</vehicle>
	<vehicle id="685" type="RSU" depart="0" departPos="28.5" color="255,0,0">
		<route edges="50/0"/>
		<stop lane="50/0_0" parking="true" endPos="28.5" until="699"/>
	</vehicle>
	<vehicle id="686" type="RSU" depart="0" departPos="20.54" color="255,0,0">
		<route edges="713"/>
		<stop lane="713_0" parking="true" endPos="20.54" until="699"/>
	</vehicle>
	<vehicle id="687" type="RSU" depart="0" departPos="128.33" color="255,0,0">
		<route edges="-38/0"/>
		<stop lane="-38/0_0" parking="true" endPos="128.33" until="699"/>
	</vehicle>
	<vehicle id="688" type="RSU" depart="0" departPos="49.32" color="255,0,0">
		<route edges="593"/>
		<stop lane="593_0" parking="true" endPos="49.32" until="699"/>
	</vehicle>
	<vehicle id="689" type="RSU" depart="0" departPos="28.83" color="255,0,0">
		<route edges="660/1"/>
		<stop lane="660/1_0" parking="true" endPos="28.83" until="699"/>
	</vehicle>
	<vehicle id="690" type="RSU" depart="0" departPos="6.56" color="255,0,0">
		<route edges="-125/1"/>
		<stop lane="-125/1_0" parking="true" endPos="6.56" until="699"/>
	</vehicle>
	<vehicle id="691" type="RSU" depart="0" departPos="14.84" color="255,0,0">
		<route edges="-768/3"/>
		<stop lane="-768/3_0" parking="true" endPos="14.84" until="699"/>
	</vehicle>
	<vehicle id="692" type="RSU" depart="0" departPos="128.98" color="255,0,0">
		<route edges="-76/0"/>
		<stop lane="-76/0_0" parking="true" endPos="128.98" until="699"/>
	</vehicle>
	<vehicle id="693" type="RSU" depart="0" departPos="216.1" color="255,0,0">
		<route edges="46"/>
		<stop lane="46_0" parking="true" endPos="216.1" until="699"/>
	</vehicle>
	<vehicle id="694" type="RSU" depart="0" departPos="116.28" color="255,0,0">
		<route edges="578/0"/>
		<stop lane="578/0_0" parking="true" endPos="116.28" until="699"/>
	</vehicle>
	<vehicle id="695" type="RSU" depart="0" departPos="34.23" color="255,0,0">
		<route edges="578/2"/>
		<stop lane="578/2_0" parking="true" endPos="34.23" until="699"/>
	</vehicle>
	<vehicle id="696" type="RSU" depart="0" departPos="33.32" color="255,0,0">
		<route edges="626"/>
		<stop lane="626_0" parking="true" endPos="33.32" until="699"/>
	</vehicle>
	<vehicle id="697" type="RSU" depart="0" departPos="39.57" color="255,0,0">
		<route edges="-768/1"/>
		<stop lane="-768/1_0" parking="true" endPos="39.57" until="699"/>
	</vehicle>
	<vehicle id="698" type="RSU" depart="0" departPos="128.34" color="255,0,0">
		<route edges="-117/1"/>
		<stop lane="-117/1_0" parking="true" endPos="128.34" until="699"/>
	</vehicle>
	<vehicle id="699" type="RSU" depart="0" departPos="45.98" color="255,0,0">
		<route edges="667/1"/>
		<stop lane="667/1_0" parking="true" endPos="45.98" until="699"/>
	</vehicle>
	<vehicle id="700" type="RSU" depart="0" departPos="106.62" color="255,0,0">
		<route edges="-768/7"/>
		<stop lane="-768/7_0" parking="true" endPos="106.62" until="699"/>
	</vehicle>
	<vehicle id="701" type="RSU" depart="0" departPos="645.34" color="255,0,0">
		<route edges="684/0"/>
		<stop lane="684/0_0" parking="true" endPos="645.34" until="699"/>
	</vehicle>
	<vehicle id="702" type="RSU" depart="0" departPos="135.09" color="255,0,0">
		<route edges="-620/1"/>
		<stop lane="-620/1_0" parking="true" endPos="135.09" until="699"/>
	</vehicle>
	<vehicle id="703" type="RSU" depart="0" departPos="36.52" color="255,0,0">
		<route edges="199"/>
		<stop lane="199_0" parking="true" endPos="36.52" until="699"/>
	</vehicle>
	<vehicle id="704" type="RSU" depart="0" departPos="7.0" color="255,0,0">
		<route edges="667/5"/>
		<stop lane="667/5_0" parking="true" endPos="7.0" until="699"/>
	</vehicle>
	<vehicle id="705" type="RSU" depart="0" departPos="102.83" color="255,0,0">
		<route edges="234/3"/>
		<stop lane="234/3_0" parking="true" endPos="102.83" until="699"/>
	</vehicle>
	<vehicle id="706" type="RSU" depart="0" departPos="270.6" color="255,0,0">
		<route edges="-768/5"/>
		<stop lane="-768/5_0" parking="true" endPos="270.6" until="699"/>
	</vehicle>
	<vehicle id="707" type="RSU" depart="0" departPos="3574.31" color="255,0,0">
		<route edges="717/0"/>
		<stop lane="717/0_0" parking="true" endPos="3574.31" until="699"/>
	</vehicle>
	<vehicle id="708" type="RSU" depart="0" departPos="67.62" color="255,0,0">
		<route edges="615/3"/>
		<stop lane="615/3_0" parking="true" endPos="67.62" until="699"/>
	</vehicle>
	<vehicle id="709" type="RSU" depart="0" departPos="195.72" color="255,0,0">
		<route edges="-579/0"/>
		<stop lane="-579/0_0" parking="true" endPos="195.72" until="699"/>
	</vehicle>
	<vehicle id="710" type="RSU" depart="0" departPos="62.99" color="255,0,0">
		<route edges="-98/0"/>
		<stop lane="-98/0_0" parking="true" endPos="62.99" until="699"/>
	</vehicle>
	<vehicle id="711" type="RSU" depart="0" departPos="66.76" color="255,0,0">
		<route edges="-116/0"/>
		<stop lane="-116/0_0" parking="true" endPos="66.76" until="699"/>
	</vehicle>
	<vehicle id="712" type="RSU" depart="0" departPos="261.8" color="255,0,0">
		<route edges="58/1"/>
		<stop lane="58/1_0" parking="true" endPos="261.8" until="699"/>
	</vehicle>
	<vehicle id="713" type="RSU" depart="0" departPos="881.33" color="255,0,0">
		<route edges="661/1"/>
		<stop lane="661/1_0" parking="true" endPos="881.33" until="699"/>
	</vehicle>
	<vehicle id="714" type="RSU" depart="0" departPos="162.93" color="255,0,0">
		<route edges="-61"/>
		<stop lane="-61_0" parking="true" endPos="162.93" until="699"/>
	</vehicle>
	<vehicle id="715" type="RSU" depart="0" departPos="1917.95" color="255,0,0">
		<route edges="734/1"/>
		<stop lane="734/1_0" parking="true" endPos="1917.95" until="699"/>
	</vehicle>
	<vehicle id="716" type="RSU" depart="0" departPos="72.32" color="255,0,0">
		<route edges="137/1"/>
		<stop lane="137/1_0" parking="true" endPos="72.32" until="699"/>
	</vehicle>
	<vehicle id="717" type="RSU" depart="0" departPos="56.83" color="255,0,0">
		<route edges="233/0"/>
		<stop lane="233/0_0" parking="true" endPos="56.83" until="699"/>
	</vehicle>
	<vehicle id="718" type="RSU" depart="0" departPos="390.5" color="255,0,0">
		<route edges="738"/>
		<stop lane="738_0" parking="true" endPos="390.5" until="699"/>
	</vehicle>
	<vehicle id="719" type="RSU" depart="0" departPos="44.56" color="255,0,0">
		<route edges="-76/2"/>
		<stop lane="-76/2_0" parking="true" endPos="44.56" until="699"/>
	</vehicle>
	<vehicle id="720" type="RSU" depart="0" departPos="133.57" color="255,0,0">
		<route edges="-312/0"/>
		<stop lane="-312/0_0" parking="true" endPos="133.57" until="699"/>
	</vehicle>
	<vehicle id="721" type="RSU" depart="0" departPos="46.45" color="255,0,0">
		<route edges="-521"/>
		<stop lane="-521_0" parking="true" endPos="46.45" until="699"/>
	</vehicle>
	<vehicle id="722" type="RSU" depart="0" departPos="23.38" color="255,0,0">
		<route edges="691/0"/>
		<stop lane="691/0_0" parking="true" endPos="23.38" until="699"/>
	</vehicle>
	<vehicle id="723" type="RSU" depart="0" departPos="138.84" color="255,0,0">
		<route edges="691/2"/>
		<stop lane="691/2_0" parking="true" endPos="138.84" until="699"/>
	</vehicle>
	<vehicle id="724" type="RSU" depart="0" departPos="207.41" color="255,0,0">
		<route edges="622"/>
		<stop lane="622_0" parking="true" endPos="207.41" until="699"/>
	</vehicle>
	<vehicle id="725" type="RSU" depart="0" departPos="31.85" color="255,0,0">
		<route edges="699"/>
		<stop lane="699_0" parking="true" endPos="31.85" until="699"/>
	</vehicle>
	<vehicle id="726" type="RSU" depart="0" departPos="88.78" color="255,0,0">
		<route edges="78/2"/>
		<stop lane="78/2_0" parking="true" endPos="88.78" until="699"/>
	</vehicle>
	<vehicle id="727" type="RSU" depart="0" departPos="66.5" color="255,0,0">
		<route edges="-115"/>
		<stop lane="-115_0" parking="true" endPos="66.5" until="699"/>
	</vehicle>
	<vehicle id="728" type="RSU" depart="0" departPos="311.12" color="255,0,0">
		<route edges="-112/0"/>
		<stop lane="-112/0_0" parking="true" endPos="311.12" until="699"/>
	</vehicle>
	<vehicle id="729" type="RSU" depart="0" departPos="177.75" color="255,0,0">
		<route edges="599"/>
		<stop lane="599_0" parking="true" endPos="177.75" until="699"/>
	</vehicle>
	<vehicle id="730" type="RSU" depart="0" departPos="120.17" color="255,0,0">
		<route edges="-312/2"/>
		<stop lane="-312/2_0" parking="true" endPos="120.17" until="699"/>
	</vehicle>
	<vehicle id="731" type="RSU" depart="0" departPos="398.55" color="255,0,0">
		<route edges="38/1"/>
		<stop lane="38/1_0" parking="true" endPos="398.55" until="699"/>
	</vehicle>
	<vehicle id="732" type="RSU" depart="0" departPos="28.13" color="255,0,0">
		<route edges="78/4"/>
		<stop lane="78/4_0" parking="true" endPos="28.13" until="699"/>
	</vehicle>
	<vehicle id="733" type="RSU" depart="0" departPos="307.75" color="255,0,0">
		<route edges="564/1"/>
		<stop lane="564/1_0" parking="true" endPos="307.75" until="699"/>
	</vehicle>
	<vehicle id="734" type="RSU" depart="0" departPos="11.19" color="255,0,0">
		<route edges="80/4"/>
		<stop lane="80/4_0" parking="true" endPos="11.19" until="699"/>
	</vehicle>
	<vehicle id="735" type="RSU" depart="0" departPos="78.99" color="255,0,0">
		<route edges="601/1"/>
		<stop lane="601/1_0" parking="true" endPos="78.99" until="699"/>
	</vehicle>
	<vehicle id="736" type="RSU" depart="0" departPos="416.02" color="255,0,0">
		<route edges="67/0"/>
		<stop lane="67/0_0" parking="true" endPos="416.02" until="699"/>
	</vehicle>
	<vehicle id="737" type="RSU" depart="0" departPos="211.61" color="255,0,0">
		<route edges="717/2"/>
		<stop lane="717/2_0" parking="true" endPos="211.61" until="699"/>
	</vehicle>
	<vehicle id="738" type="RSU" depart="0" departPos="251.52" color="255,0,0">
		<route edges="5"/>
		<stop lane="5_0" parking="true" endPos="251.52" until="699"/>
	</vehicle>
	<vehicle id="739" type="RSU" depart="0" departPos="55.19" color="255,0,0">
		<route edges="741/1"/>
		<stop lane="741/1_0" parking="true" endPos="55.19" until="699"/>
	</vehicle>
	<vehicle id="740" type="RSU" depart="0" departPos="80.76" color="255,0,0">
		<route edges="158"/>
		<stop lane="158_0" parking="true" endPos="80.76" until="699"/>
	</vehicle>
	<vehicle id="741" type="RSU" depart="0" departPos="62.28" color="255,0,0">
		<route edges="78/6"/>
		<stop lane="78/6_0" parking="true" endPos="62.28" until="699"/>
	</vehicle>
	<vehicle id="742" type="RSU" depart="0" departPos="17.1" color="255,0,0">
		<route edges="-579/2"/>
		<stop lane="-579/2_0" parking="true" endPos="17.1" until="699"/>
	</vehicle>
	<vehicle id="743" type="RSU" depart="0" departPos="103.82" color="255,0,0">
		<route edges="-78/1"/>
		<stop lane="-78/1_0" parking="true" endPos="103.82" until="699"/>
	</vehicle>
	<vehicle id="744" type="RSU" depart="0" departPos="46.17" color="255,0,0">
		<route edges="-114/0"/>
		<stop lane="-114/0_0" parking="true" endPos="46.17" until="699"/>
	</vehicle>
	<vehicle id="745" type="RSU" depart="0" departPos="122.02" color="255,0,0">
		<route edges="692/1"/>
		<stop lane="692/1_0" parking="true" endPos="122.02" until="699"/>
	</vehicle>
	<vehicle id="746" type="RSU" depart="0" departPos="54.67" color="255,0,0">
		<route edges="-196/0"/>
		<stop lane="-196/0_0" parking="true" endPos="54.67" until="699"/>
	</vehicle>
	<vehicle id="747" type="RSU" depart="0" departPos="136.9" color="255,0,0">
		<route edges="619/3"/>
		<stop lane="619/3_0" parking="true" endPos="136.9" until="699"/>
	</vehicle>
	<vehicle id="748" type="RSU" depart="0" departPos="278.88" color="255,0,0">
		<route edges="30/1"/>
		<stop lane="30/1_0" parking="true" endPos="278.88" until="699"/>
	</vehicle>
	<vehicle id="749" type="RSU" depart="0" departPos="20.08" color="255,0,0">
		<route edges="539/1"/>
		<stop lane="539/1_0" parking="true" endPos="20.08" until="699"/>
	</vehicle>
	<vehicle id="750" type="RSU" depart="0" departPos="219.28" color="255,0,0">
		<route edges="582/1"/>
		<stop lane="582/1_0" parking="true" endPos="219.28" until="699"/>
	</vehicle>
	<vehicle id="751" type="RSU" depart="0" departPos="6.16" color="255,0,0">
		<route edges="636/1"/>
		<stop lane="636/1_0" parking="true" endPos="6.16" until="699"/>
	</vehicle>
	<vehicle id="752" type="RSU" depart="0" departPos="217.53" color="255,0,0">
		<route edges="-206"/>
		<stop lane="-206_0" parking="true" endPos="217.53" until="699"/>
	</vehicle>
	<vehicle id="753" type="RSU" depart="0" departPos="15.44" color="255,0,0">
		<route edges="144/2"/>
		<stop lane="144/2_0" parking="true" endPos="15.44" until="699"/>
	</vehicle>
	<vehicle id="754" type="RSU" depart="0" departPos="27.97" color="255,0,0">
		<route edges="81/6"/>
		<stop lane="81/6_0" parking="true" endPos="27.97" until="699"/>
	</vehicle>
	<vehicle id="755" type="RSU" depart="0" departPos="255.25" color="255,0,0">
		<route edges="2/2"/>
		<stop lane="2/2_0" parking="true" endPos="255.25" until="699"/>
	</vehicle>
	<vehicle id="756" type="RSU" depart="0" departPos="137.17" color="255,0,0">
		<route edges="657/2"/>
		<stop lane="657/2_0" parking="true" endPos="137.17" until="699"/>
	</vehicle>
	<vehicle id="757" type="RSU" depart="0" departPos="36.6" color="255,0,0">
		<route edges="204/3"/>
		<stop lane="204/3_0" parking="true" endPos="36.6" until="699"/>
	</vehicle>
	<vehicle id="758" type="RSU" depart="0" departPos="27.12" color="255,0,0">
		<route edges="573"/>
		<stop lane="573_0" parking="true" endPos="27.12" until="699"/>
	</vehicle>
	<vehicle id="759" type="RSU" depart="0" departPos="45.26" color="255,0,0">
		<route edges="204/1"/>
		<stop lane="204/1_0" parking="true" endPos="45.26" until="699"/>
	</vehicle>
	<vehicle id="760" type="RSU" depart="0" departPos="121.68" color="255,0,0">
		<route edges="619/5"/>
		<stop lane="619/5_0" parking="true" endPos="121.68" until="699"/>
	</vehicle>
	<vehicle id="761" type="RSU" depart="0" departPos="43.22" color="255,0,0">
		<route edges="-55/1"/>
		<stop lane="-55/1_0" parking="true" endPos="43.22" until="699"/>
	</vehicle>
	<vehicle id="762" type="RSU" depart="0" departPos="11.91" color="255,0,0">
		<route edges="81/0"/>