<?xml version="1.0" encoding="UTF-8"?>

<!-- generated on 01/15/18 21:37:12 by SUMO netgenerate Version 0.24.0
<?xml version="1.0" encoding="UTF-8"?>

<configuration xmlns:xsi="http://www.w3.org/2001/XMLSchema-instance" xsi:noNamespaceSchemaLocation="http://sumo.dlr.de/xsd/netgenerateConfiguration.xsd">

    <grid_network>
        <grid value="true"/>
        <grid.number value="5"/>
        <grid.length value="1000"/>
    </grid_network>

    <output>
        <output-file value="input_net.net.xml"/>
    </output>

    <processing>
        <no-internal-links value="true"/>
    </processing>

    <building_defaults>
        <default.lanenumber value="5"/>
        <default.speed value="20"/>
    </building_defaults>

</configuration>
-->

<net version="0.13" xmlns:xsi="http://www.w3.org/2001/XMLSchema-instance" xsi:noNamespaceSchemaLocation="http://sumo.dlr.de/xsd/net_file.xsd">

    <location netOffset="0.00,0.00" convBoundary="0.00,0.00,4000.00,4000.00" origBoundary="0.00,0.00,4000.00,4000.00" projParameter="!"/>

    <edge id="0/0to0/1" from="0/0" to="0/1" priority="-1">
        <lane id="0/0to0/1_0" index="0" speed="20.00" length="1000.00" shape="14.85,16.45 14.85,982.05"/>
        <lane id="0/0to0/1_1" index="1" speed="20.00" length="1000.00" shape="11.55,16.45 11.55,982.05"/>
        <lane id="0/0to0/1_2" index="2" speed="20.00" length="1000.00" shape="8.25,16.45 8.25,982.05"/>
        <lane id="0/0to0/1_3" index="3" speed="20.00" length="1000.00" shape="4.95,16.45 4.95,982.05"/>
        <lane id="0/0to0/1_4" index="4" speed="20.00" length="1000.00" shape="1.65,16.45 1.65,982.05"/>
    </edge>
    <edge id="0/0to1/0" from="0/0" to="1/0" priority="-1">
        <lane id="0/0to1/0_0" index="0" speed="20.00" length="1000.00" shape="16.45,-14.85 982.05,-14.85"/>
        <lane id="0/0to1/0_1" index="1" speed="20.00" length="1000.00" shape="16.45,-11.55 982.05,-11.55"/>
        <lane id="0/0to1/0_2" index="2" speed="20.00" length="1000.00" shape="16.45,-8.25 982.05,-8.25"/>
        <lane id="0/0to1/0_3" index="3" speed="20.00" length="1000.00" shape="16.45,-4.95 982.05,-4.95"/>
        <lane id="0/0to1/0_4" index="4" speed="20.00" length="1000.00" shape="16.45,-1.65 982.05,-1.65"/>
    </edge>
    <edge id="0/1to0/0" from="0/1" to="0/0" priority="-1">
        <lane id="0/1to0/0_0" index="0" speed="20.00" length="1000.00" shape="-14.85,982.05 -14.85,16.45"/>
        <lane id="0/1to0/0_1" index="1" speed="20.00" length="1000.00" shape="-11.55,982.05 -11.55,16.45"/>
        <lane id="0/1to0/0_2" index="2" speed="20.00" length="1000.00" shape="-8.25,982.05 -8.25,16.45"/>
        <lane id="0/1to0/0_3" index="3" speed="20.00" length="1000.00" shape="-4.95,982.05 -4.95,16.45"/>
        <lane id="0/1to0/0_4" index="4" speed="20.00" length="1000.00" shape="-1.65,982.05 -1.65,16.45"/>
    </edge>
    <edge id="0/1to0/2" from="0/1" to="0/2" priority="-1">
        <lane id="0/1to0/2_0" index="0" speed="20.00" length="1000.00" shape="14.85,1017.95 14.85,1982.05"/>
        <lane id="0/1to0/2_1" index="1" speed="20.00" length="1000.00" shape="11.55,1017.95 11.55,1982.05"/>
        <lane id="0/1to0/2_2" index="2" speed="20.00" length="1000.00" shape="8.25,1017.95 8.25,1982.05"/>
        <lane id="0/1to0/2_3" index="3" speed="20.00" length="1000.00" shape="4.95,1017.95 4.95,1982.05"/>
        <lane id="0/1to0/2_4" index="4" speed="20.00" length="1000.00" shape="1.65,1017.95 1.65,1982.05"/>
    </edge>
    <edge id="0/1to1/1" from="0/1" to="1/1" priority="-1">
        <lane id="0/1to1/1_0" index="0" speed="20.00" length="1000.00" shape="17.95,985.15 982.05,985.15"/>
        <lane id="0/1to1/1_1" index="1" speed="20.00" length="1000.00" shape="17.95,988.45 982.05,988.45"/>
        <lane id="0/1to1/1_2" index="2" speed="20.00" length="1000.00" shape="17.95,991.75 982.05,991.75"/>
        <lane id="0/1to1/1_3" index="3" speed="20.00" length="1000.00" shape="17.95,995.05 982.05,995.05"/>
        <lane id="0/1to1/1_4" index="4" speed="20.00" length="1000.00" shape="17.95,998.35 982.05,998.35"/>
    </edge>
    <edge id="0/2to0/1" from="0/2" to="0/1" priority="-1">
        <lane id="0/2to0/1_0" index="0" speed="20.00" length="1000.00" shape="-14.85,1982.05 -14.85,1017.95"/>
        <lane id="0/2to0/1_1" index="1" speed="20.00" length="1000.00" shape="-11.55,1982.05 -11.55,1017.95"/>
        <lane id="0/2to0/1_2" index="2" speed="20.00" length="1000.00" shape="-8.25,1982.05 -8.25,1017.95"/>
        <lane id="0/2to0/1_3" index="3" speed="20.00" length="1000.00" shape="-4.95,1982.05 -4.95,1017.95"/>
        <lane id="0/2to0/1_4" index="4" speed="20.00" length="1000.00" shape="-1.65,1982.05 -1.65,1017.95"/>
    </edge>
    <edge id="0/2to0/3" from="0/2" to="0/3" priority="-1">
        <lane id="0/2to0/3_0" index="0" speed="20.00" length="1000.00" shape="14.85,2017.95 14.85,2982.05"/>
        <lane id="0/2to0/3_1" index="1" speed="20.00" length="1000.00" shape="11.55,2017.95 11.55,2982.05"/>
        <lane id="0/2to0/3_2" index="2" speed="20.00" length="1000.00" shape="8.25,2017.95 8.25,2982.05"/>
        <lane id="0/2to0/3_3" index="3" speed="20.00" length="1000.00" shape="4.95,2017.95 4.95,2982.05"/>
        <lane id="0/2to0/3_4" index="4" speed="20.00" length="1000.00" shape="1.65,2017.95 1.65,2982.05"/>
    </edge>
    <edge id="0/2to1/2" from="0/2" to="1/2" priority="-1">
        <lane id="0/2to1/2_0" index="0" speed="20.00" length="1000.00" shape="17.95,1985.15 982.05,1985.15"/>
        <lane id="0/2to1/2_1" index="1" speed="20.00" length="1000.00" shape="17.95,1988.45 982.05,1988.45"/>
        <lane id="0/2to1/2_2" index="2" speed="20.00" length="1000.00" shape="17.95,1991.75 982.05,1991.75"/>
        <lane id="0/2to1/2_3" index="3" speed="20.00" length="1000.00" shape="17.95,1995.05 982.05,1995.05"/>
        <lane id="0/2to1/2_4" index="4" speed="20.00" length="1000.00" shape="17.95,1998.35 982.05,1998.35"/>
    </edge>
    <edge id="0/3to0/2" from="0/3" to="0/2" priority="-1">
        <lane id="0/3to0/2_0" index="0" speed="20.00" length="1000.00" shape="-14.85,2982.05 -14.85,2017.95"/>
        <lane id="0/3to0/2_1" index="1" speed="20.00" length="1000.00" shape="-11.55,2982.05 -11.55,2017.95"/>
        <lane id="0/3to0/2_2" index="2" speed="20.00" length="1000.00" shape="-8.25,2982.05 -8.25,2017.95"/>
        <lane id="0/3to0/2_3" index="3" speed="20.00" length="1000.00" shape="-4.95,2982.05 -4.95,2017.95"/>
        <lane id="0/3to0/2_4" index="4" speed="20.00" length="1000.00" shape="-1.65,2982.05 -1.65,2017.95"/>
    </edge>
    <edge id="0/3to0/4" from="0/3" to="0/4" priority="-1">
        <lane id="0/3to0/4_0" index="0" speed="20.00" length="1000.00" shape="14.85,3017.95 14.85,3983.55"/>
        <lane id="0/3to0/4_1" index="1" speed="20.00" length="1000.00" shape="11.55,3017.95 11.55,3983.55"/>
        <lane id="0/3to0/4_2" index="2" speed="20.00" length="1000.00" shape="8.25,3017.95 8.25,3983.55"/>
        <lane id="0/3to0/4_3" index="3" speed="20.00" length="1000.00" shape="4.95,3017.95 4.95,3983.55"/>
        <lane id="0/3to0/4_4" index="4" speed="20.00" length="1000.00" shape="1.65,3017.95 1.65,3983.55"/>
    </edge>
    <edge id="0/3to1/3" from="0/3" to="1/3" priority="-1">
        <lane id="0/3to1/3_0" index="0" speed="20.00" length="1000.00" shape="17.95,2985.15 982.05,2985.15"/>
        <lane id="0/3to1/3_1" index="1" speed="20.00" length="1000.00" shape="17.95,2988.45 982.05,2988.45"/>
        <lane id="0/3to1/3_2" index="2" speed="20.00" length="1000.00" shape="17.95,2991.75 982.05,2991.75"/>
        <lane id="0/3to1/3_3" index="3" speed="20.00" length="1000.00" shape="17.95,2995.05 982.05,2995.05"/>
        <lane id="0/3to1/3_4" index="4" speed="20.00" length="1000.00" shape="17.95,2998.35 982.05,2998.35"/>
    </edge>
    <edge id="0/4to0/3" from="0/4" to="0/3" priority="-1">
        <lane id="0/4to0/3_0" index="0" speed="20.00" length="1000.00" shape="-14.85,3983.55 -14.85,3017.95"/>
        <lane id="0/4to0/3_1" index="1" speed="20.00" length="1000.00" shape="-11.55,3983.55 -11.55,3017.95"/>
        <lane id="0/4to0/3_2" index="2" speed="20.00" length="1000.00" shape="-8.25,3983.55 -8.25,3017.95"/>
        <lane id="0/4to0/3_3" index="3" speed="20.00" length="1000.00" shape="-4.95,3983.55 -4.95,3017.95"/>
        <lane id="0/4to0/3_4" index="4" speed="20.00" length="1000.00" shape="-1.65,3983.55 -1.65,3017.95"/>
    </edge>
    <edge id="0/4to1/4" from="0/4" to="1/4" priority="-1">
        <lane id="0/4to1/4_0" index="0" speed="20.00" length="1000.00" shape="16.45,3985.15 982.05,3985.15"/>
        <lane id="0/4to1/4_1" index="1" speed="20.00" length="1000.00" shape="16.45,3988.45 982.05,3988.45"/>
        <lane id="0/4to1/4_2" index="2" speed="20.00" length="1000.00" shape="16.45,3991.75 982.05,3991.75"/>
        <lane id="0/4to1/4_3" index="3" speed="20.00" length="1000.00" shape="16.45,3995.05 982.05,3995.05"/>
        <lane id="0/4to1/4_4" index="4" speed="20.00" length="1000.00" shape="16.45,3998.35 982.05,3998.35"/>
    </edge>
    <edge id="1/0to0/0" from="1/0" to="0/0" priority="-1">
        <lane id="1/0to0/0_0" index="0" speed="20.00" length="1000.00" shape="982.05,14.85 16.45,14.85"/>
        <lane id="1/0to0/0_1" index="1" speed="20.00" length="1000.00" shape="982.05,11.55 16.45,11.55"/>
        <lane id="1/0to0/0_2" index="2" speed="20.00" length="1000.00" shape="982.05,8.25 16.45,8.25"/>
        <lane id="1/0to0/0_3" index="3" speed="20.00" length="1000.00" shape="982.05,4.95 16.45,4.95"/>
        <lane id="1/0to0/0_4" index="4" speed="20.00" length="1000.00" shape="982.05,1.65 16.45,1.65"/>
    </edge>
    <edge id="1/0to1/1" from="1/0" to="1/1" priority="-1">
        <lane id="1/0to1/1_0" index="0" speed="20.00" length="1000.00" shape="1014.85,17.95 1014.85,982.05"/>
        <lane id="1/0to1/1_1" index="1" speed="20.00" length="1000.00" shape="1011.55,17.95 1011.55,982.05"/>
        <lane id="1/0to1/1_2" index="2" speed="20.00" length="1000.00" shape="1008.25,17.95 1008.25,982.05"/>
        <lane id="1/0to1/1_3" index="3" speed="20.00" length="1000.00" shape="1004.95,17.95 1004.95,982.05"/>
        <lane id="1/0to1/1_4" index="4" speed="20.00" length="1000.00" shape="1001.65,17.95 1001.65,982.05"/>
    </edge>
    <edge id="1/0to2/0" from="1/0" to="2/0" priority="-1">
        <lane id="1/0to2/0_0" index="0" speed="20.00" length="1000.00" shape="1017.95,-14.85 1982.05,-14.85"/>
        <lane id="1/0to2/0_1" index="1" speed="20.00" length="1000.00" shape="1017.95,-11.55 1982.05,-11.55"/>
        <lane id="1/0to2/0_2" index="2" speed="20.00" length="1000.00" shape="1017.95,-8.25 1982.05,-8.25"/>
        <lane id="1/0to2/0_3" index="3" speed="20.00" length="1000.00" shape="1017.95,-4.95 1982.05,-4.95"/>
        <lane id="1/0to2/0_4" index="4" speed="20.00" length="1000.00" shape="1017.95,-1.65 1982.05,-1.65"/>
    </edge>
    <edge id="1/1to0/1" from="1/1" to="0/1" priority="-1">
        <lane id="1/1to0/1_0" index="0" speed="20.00" length="1000.00" shape="982.05,1014.85 17.95,1014.85"/>
        <lane id="1/1to0/1_1" index="1" speed="20.00" length="1000.00" shape="982.05,1011.55 17.95,1011.55"/>
        <lane id="1/1to0/1_2" index="2" speed="20.00" length="1000.00" shape="982.05,1008.25 17.95,1008.25"/>
        <lane id="1/1to0/1_3" index="3" speed="20.00" length="1000.00" shape="982.05,1004.95 17.95,1004.95"/>
        <lane id="1/1to0/1_4" index="4" speed="20.00" length="1000.00" shape="982.05,1001.65 17.95,1001.65"/>
    </edge>
    <edge id="1/1to1/0" from="1/1" to="1/0" priority="-1">
        <lane id="1/1to1/0_0" index="0" speed="20.00" length="1000.00" shape="985.15,982.05 985.15,17.95"/>
        <lane id="1/1to1/0_1" index="1" speed="20.00" length="1000.00" shape="988.45,982.05 988.45,17.95"/>
        <lane id="1/1to1/0_2" index="2" speed="20.00" length="1000.00" shape="991.75,982.05 991.75,17.95"/>
        <lane id="1/1to1/0_3" index="3" speed="20.00" length="1000.00" shape="995.05,982.05 995.05,17.95"/>
        <lane id="1/1to1/0_4" index="4" speed="20.00" length="1000.00" shape="998.35,982.05 998.35,17.95"/>
    </edge>
    <edge id="1/1to1/2" from="1/1" to="1/2" priority="-1">
        <lane id="1/1to1/2_0" index="0" speed="20.00" length="1000.00" shape="1014.85,1017.95 1014.85,1982.05"/>
        <lane id="1/1to1/2_1" index="1" speed="20.00" length="1000.00" shape="1011.55,1017.95 1011.55,1982.05"/>
        <lane id="1/1to1/2_2" index="2" speed="20.00" length="1000.00" shape="1008.25,1017.95 1008.25,1982.05"/>
        <lane id="1/1to1/2_3" index="3" speed="20.00" length="1000.00" shape="1004.95,1017.95 1004.95,1982.05"/>
        <lane id="1/1to1/2_4" index="4" speed="20.00" length="1000.00" shape="1001.65,1017.95 1001.65,1982.05"/>
    </edge>
    <edge id="1/1to2/1" from="1/1" to="2/1" priority="-1">
        <lane id="1/1to2/1_0" index="0" speed="20.00" length="1000.00" shape="1017.95,985.15 1982.05,985.15"/>
        <lane id="1/1to2/1_1" index="1" speed="20.00" length="1000.00" shape="1017.95,988.45 1982.05,988.45"/>
        <lane id="1/1to2/1_2" index="2" speed="20.00" length="1000.00" shape="1017.95,991.75 1982.05,991.75"/>
        <lane id="1/1to2/1_3" index="3" speed="20.00" length="1000.00" shape="1017.95,995.05 1982.05,995.05"/>
        <lane id="1/1to2/1_4" index="4" speed="20.00" length="1000.00" shape="1017.95,998.35 1982.05,998.35"/>
    </edge>
    <edge id="1/2to0/2" from="1/2" to="0/2" priority="-1">
        <lane id="1/2to0/2_0" index="0" speed="20.00" length="1000.00" shape="982.05,2014.85 17.95,2014.85"/>
        <lane id="1/2to0/2_1" index="1" speed="20.00" length="1000.00" shape="982.05,2011.55 17.95,2011.55"/>
        <lane id="1/2to0/2_2" index="2" speed="20.00" length="1000.00" shape="982.05,2008.25 17.95,2008.25"/>
        <lane id="1/2to0/2_3" index="3" speed="20.00" length="1000.00" shape="982.05,2004.95 17.95,2004.95"/>
        <lane id="1/2to0/2_4" index="4" speed="20.00" length="1000.00" shape="982.05,2001.65 17.95,2001.65"/>
    </edge>
    <edge id="1/2to1/1" from="1/2" to="1/1" priority="-1">
        <lane id="1/2to1/1_0" index="0" speed="20.00" length="1000.00" shape="985.15,1982.05 985.15,1017.95"/>
        <lane id="1/2to1/1_1" index="1" speed="20.00" length="1000.00" shape="988.45,1982.05 988.45,1017.95"/>
        <lane id="1/2to1/1_2" index="2" speed="20.00" length="1000.00" shape="991.75,1982.05 991.75,1017.95"/>
        <lane id="1/2to1/1_3" index="3" speed="20.00" length="1000.00" shape="995.05,1982.05 995.05,1017.95"/>
        <lane id="1/2to1/1_4" index="4" speed="20.00" length="1000.00" shape="998.35,1982.05 998.35,1017.95"/>
    </edge>
    <edge id="1/2to1/3" from="1/2" to="1/3" priority="-1">
        <lane id="1/2to1/3_0" index="0" speed="20.00" length="1000.00" shape="1014.85,2017.95 1014.85,2982.05"/>
        <lane id="1/2to1/3_1" index="1" speed="20.00" length="1000.00" shape="1011.55,2017.95 1011.55,2982.05"/>
        <lane id="1/2to1/3_2" index="2" speed="20.00" length="1000.00" shape="1008.25,2017.95 1008.25,2982.05"/>
        <lane id="1/2to1/3_3" index="3" speed="20.00" length="1000.00" shape="1004.95,2017.95 1004.95,2982.05"/>
        <lane id="1/2to1/3_4" index="4" speed="20.00" length="1000.00" shape="1001.65,2017.95 1001.65,2982.05"/>
    </edge>
    <edge id="1/2to2/2" from="1/2" to="2/2" priority="-1">
        <lane id="1/2to2/2_0" index="0" speed="20.00" length="1000.00" shape="1017.95,1985.15 1982.05,1985.15"/>
        <lane id="1/2to2/2_1" index="1" speed="20.00" length="1000.00" shape="1017.95,1988.45 1982.05,1988.45"/>
        <lane id="1/2to2/2_2" index="2" speed="20.00" length="1000.00" shape="1017.95,1991.75 1982.05,1991.75"/>
        <lane id="1/2to2/2_3" index="3" speed="20.00" length="1000.00" shape="1017.95,1995.05 1982.05,1995.05"/>
        <lane id="1/2to2/2_4" index="4" speed="20.00" length="1000.00" shape="1017.95,1998.35 1982.05,1998.35"/>
    </edge>
    <edge id="1/3to0/3" from="1/3" to="0/3" priority="-1">
        <lane id="1/3to0/3_0" index="0" speed="20.00" length="1000.00" shape="982.05,3014.85 17.95,3014.85"/>
        <lane id="1/3to0/3_1" index="1" speed="20.00" length="1000.00" shape="982.05,3011.55 17.95,3011.55"/>
        <lane id="1/3to0/3_2" index="2" speed="20.00" length="1000.00" shape="982.05,3008.25 17.95,3008.25"/>
        <lane id="1/3to0/3_3" index="3" speed="20.00" length="1000.00" shape="982.05,3004.95 17.95,3004.95"/>
        <lane id="1/3to0/3_4" index="4" speed="20.00" length="1000.00" shape="982.05,3001.65 17.95,3001.65"/>
    </edge>
    <edge id="1/3to1/2" from="1/3" to="1/2" priority="-1">
        <lane id="1/3to1/2_0" index="0" speed="20.00" length="1000.00" shape="985.15,2982.05 985.15,2017.95"/>
        <lane id="1/3to1/2_1" index="1" speed="20.00" length="1000.00" shape="988.45,2982.05 988.45,2017.95"/>
        <lane id="1/3to1/2_2" index="2" speed="20.00" length="1000.00" shape="991.75,2982.05 991.75,2017.95"/>
        <lane id="1/3to1/2_3" index="3" speed="20.00" length="1000.00" shape="995.05,2982.05 995.05,2017.95"/>
        <lane id="1/3to1/2_4" index="4" speed="20.00" length="1000.00" shape="998.35,2982.05 998.35,2017.95"/>
    </edge>
    <edge id="1/3to1/4" from="1/3" to="1/4" priority="-1">
        <lane id="1/3to1/4_0" index="0" speed="20.00" length="1000.00" shape="1014.85,3017.95 1014.85,3982.05"/>
        <lane id="1/3to1/4_1" index="1" speed="20.00" length="1000.00" shape="1011.55,3017.95 1011.55,3982.05"/>
        <lane id="1/3to1/4_2" index="2" speed="20.00" length="1000.00" shape="1008.25,3017.95 1008.25,3982.05"/>
        <lane id="1/3to1/4_3" index="3" speed="20.00" length="1000.00" shape="1004.95,3017.95 1004.95,3982.05"/>
        <lane id="1/3to1/4_4" index="4" speed="20.00" length="1000.00" shape="1001.65,3017.95 1001.65,3982.05"/>
    </edge>
    <edge id="1/3to2/3" from="1/3" to="2/3" priority="-1">
        <lane id="1/3to2/3_0" index="0" speed="20.00" length="1000.00" shape="1017.95,2985.15 1982.05,2985.15"/>
        <lane id="1/3to2/3_1" index="1" speed="20.00" length="1000.00" shape="1017.95,2988.45 1982.05,2988.45"/>
        <lane id="1/3to2/3_2" index="2" speed="20.00" length="1000.00" shape="1017.95,2991.75 1982.05,2991.75"/>
        <lane id="1/3to2/3_3" index="3" speed="20.00" length="1000.00" shape="1017.95,2995.05 1982.05,2995.05"/>
        <lane id="1/3to2/3_4" index="4" speed="20.00" length="1000.00" shape="1017.95,2998.35 1982.05,2998.35"/>
    </edge>
    <edge id="1/4to0/4" from="1/4" to="0/4" priority="-1">
        <lane id="1/4to0/4_0" index="0" speed="20.00" length="1000.00" shape="982.05,4014.85 16.45,4014.85"/>
        <lane id="1/4to0/4_1" index="1" speed="20.00" length="1000.00" shape="982.05,4011.55 16.45,4011.55"/>
        <lane id="1/4to0/4_2" index="2" speed="20.00" length="1000.00" shape="982.05,4008.25 16.45,4008.25"/>
        <lane id="1/4to0/4_3" index="3" speed="20.00" length="1000.00" shape="982.05,4004.95 16.45,4004.95"/>
        <lane id="1/4to0/4_4" index="4" speed="20.00" length="1000.00" shape="982.05,4001.65 16.45,4001.65"/>
    </edge>
    <edge id="1/4to1/3" from="1/4" to="1/3" priority="-1">
        <lane id="1/4to1/3_0" index="0" speed="20.00" length="1000.00" shape="985.15,3982.05 985.15,3017.95"/>
        <lane id="1/4to1/3_1" index="1" speed="20.00" length="1000.00" shape="988.45,3982.05 988.45,3017.95"/>
        <lane id="1/4to1/3_2" index="2" speed="20.00" length="1000.00" shape="991.75,3982.05 991.75,3017.95"/>
        <lane id="1/4to1/3_3" index="3" speed="20.00" length="1000.00" shape="995.05,3982.05 995.05,3017.95"/>
        <lane id="1/4to1/3_4" index="4" speed="20.00" length="1000.00" shape="998.35,3982.05 998.35,3017.95"/>
    </edge>
    <edge id="1/4to2/4" from="1/4" to="2/4" priority="-1">
        <lane id="1/4to2/4_0" index="0" speed="20.00" length="1000.00" shape="1017.95,3985.15 1982.05,3985.15"/>
        <lane id="1/4to2/4_1" index="1" speed="20.00" length="1000.00" shape="1017.95,3988.45 1982.05,3988.45"/>
        <lane id="1/4to2/4_2" index="2" speed="20.00" length="1000.00" shape="1017.95,3991.75 1982.05,3991.75"/>
        <lane id="1/4to2/4_3" index="3" speed="20.00" length="1000.00" shape="1017.95,3995.05 1982.05,3995.05"/>
        <lane id="1/4to2/4_4" index="4" speed="20.00" length="1000.00" shape="1017.95,3998.35 1982.05,3998.35"/>
    </edge>
    <edge id="2/0to1/0" from="2/0" to="1/0" priority="-1">
        <lane id="2/0to1/0_0" index="0" speed="20.00" length="1000.00" shape="1982.05,14.85 1017.95,14.85"/>
        <lane id="2/0to1/0_1" index="1" speed="20.00" length="1000.00" shape="1982.05,11.55 1017.95,11.55"/>
        <lane id="2/0to1/0_2" index="2" speed="20.00" length="1000.00" shape="1982.05,8.25 1017.95,8.25"/>
        <lane id="2/0to1/0_3" index="3" speed="20.00" length="1000.00" shape="1982.05,4.95 1017.95,4.95"/>
        <lane id="2/0to1/0_4" index="4" speed="20.00" length="1000.00" shape="1982.05,1.65 1017.95,1.65"/>
    </edge>
    <edge id="2/0to2/1" from="2/0" to="2/1" priority="-1">
        <lane id="2/0to2/1_0" index="0" speed="20.00" length="1000.00" shape="2014.85,17.95 2014.85,982.05"/>
        <lane id="2/0to2/1_1" index="1" speed="20.00" length="1000.00" shape="2011.55,17.95 2011.55,982.05"/>
        <lane id="2/0to2/1_2" index="2" speed="20.00" length="1000.00" shape="2008.25,17.95 2008.25,982.05"/>
        <lane id="2/0to2/1_3" index="3" speed="20.00" length="1000.00" shape="2004.95,17.95 2004.95,982.05"/>
        <lane id="2/0to2/1_4" index="4" speed="20.00" length="1000.00" shape="2001.65,17.95 2001.65,982.05"/>
    </edge>
    <edge id="2/0to3/0" from="2/0" to="3/0" priority="-1">
        <lane id="2/0to3/0_0" index="0" speed="20.00" length="1000.00" shape="2017.95,-14.85 2982.05,-14.85"/>
        <lane id="2/0to3/0_1" index="1" speed="20.00" length="1000.00" shape="2017.95,-11.55 2982.05,-11.55"/>
        <lane id="2/0to3/0_2" index="2" speed="20.00" length="1000.00" shape="2017.95,-8.25 2982.05,-8.25"/>
        <lane id="2/0to3/0_3" index="3" speed="20.00" length="1000.00" shape="2017.95,-4.95 2982.05,-4.95"/>
        <lane id="2/0to3/0_4" index="4" speed="20.00" length="1000.00" shape="2017.95,-1.65 2982.05,-1.65"/>
    </edge>
    <edge id="2/1to1/1" from="2/1" to="1/1" priority="-1">
        <lane id="2/1to1/1_0" index="0" speed="20.00" length="1000.00" shape="1982.05,1014.85 1017.95,1014.85"/>
        <lane id="2/1to1/1_1" index="1" speed="20.00" length="1000.00" shape="1982.05,1011.55 1017.95,1011.55"/>
        <lane id="2/1to1/1_2" index="2" speed="20.00" length="1000.00" shape="1982.05,1008.25 1017.95,1008.25"/>
        <lane id="2/1to1/1_3" index="3" speed="20.00" length="1000.00" shape="1982.05,1004.95 1017.95,1004.95"/>
        <lane id="2/1to1/1_4" index="4" speed="20.00" length="1000.00" shape="1982.05,1001.65 1017.95,1001.65"/>
    </edge>
    <edge id="2/1to2/0" from="2/1" to="2/0" priority="-1">
        <lane id="2/1to2/0_0" index="0" speed="20.00" length="1000.00" shape="1985.15,982.05 1985.15,17.95"/>
        <lane id="2/1to2/0_1" index="1" speed="20.00" length="1000.00" shape="1988.45,982.05 1988.45,17.95"/>
        <lane id="2/1to2/0_2" index="2" speed="20.00" length="1000.00" shape="1991.75,982.05 1991.75,17.95"/>
        <lane id="2/1to2/0_3" index="3" speed="20.00" length="1000.00" shape="1995.05,982.05 1995.05,17.95"/>
        <lane id="2/1to2/0_4" index="4" speed="20.00" length="1000.00" shape="1998.35,982.05 1998.35,17.95"/>
    </edge>
    <edge id="2/1to2/2" from="2/1" to="2/2" priority="-1">
        <lane id="2/1to2/2_0" index="0" speed="20.00" length="1000.00" shape="2014.85,1017.95 2014.85,1982.05"/>
        <lane id="2/1to2/2_1" index="1" speed="20.00" length="1000.00" shape="2011.55,1017.95 2011.55,1982.05"/>
        <lane id="2/1to2/2_2" index="2" speed="20.00" length="1000.00" shape="2008.25,1017.95 2008.25,1982.05"/>
        <lane id="2/1to2/2_3" index="3" speed="20.00" length="1000.00" shape="2004.95,1017.95 2004.95,1982.05"/>
        <lane id="2/1to2/2_4" index="4" speed="20.00" length="1000.00" shape="2001.65,1017.95 2001.65,1982.05"/>
    </edge>
    <edge id="2/1to3/1" from="2/1" to="3/1" priority="-1">
        <lane id="2/1to3/1_0" index="0" speed="20.00" length="1000.00" shape="2017.95,985.15 2982.05,985.15"/>
        <lane id="2/1to3/1_1" index="1" speed="20.00" length="1000.00" shape="2017.95,988.45 2982.05,988.45"/>
        <lane id="2/1to3/1_2" index="2" speed="20.00" length="1000.00" shape="2017.95,991.75 2982.05,991.75"/>
        <lane id="2/1to3/1_3" index="3" speed="20.00" length="1000.00" shape="2017.95,995.05 2982.05,995.05"/>
        <lane id="2/1to3/1_4" index="4" speed="20.00" length="1000.00" shape="2017.95,998.35 2982.05,998.35"/>
    </edge>
    <edge id="2/2to1/2" from="2/2" to="1/2" priority="-1">
        <lane id="2/2to1/2_0" index="0" speed="20.00" length="1000.00" shape="1982.05,2014.85 1017.95,2014.85"/>
        <lane id="2/2to1/2_1" index="1" speed="20.00" length="1000.00" shape="1982.05,2011.55 1017.95,2011.55"/>
        <lane id="2/2to1/2_2" index="2" speed="20.00" length="1000.00" shape="1982.05,2008.25 1017.95,2008.25"/>
        <lane id="2/2to1/2_3" index="3" speed="20.00" length="1000.00" shape="1982.05,2004.95 1017.95,2004.95"/>
        <lane id="2/2to1/2_4" index="4" speed="20.00" length="1000.00" shape="1982.05,2001.65 1017.95,2001.65"/>
    </edge>
    <edge id="2/2to2/1" from="2/2" to="2/1" priority="-1">
        <lane id="2/2to2/1_0" index="0" speed="20.00" length="1000.00" shape="1985.15,1982.05 1985.15,1017.95"/>
        <lane id="2/2to2/1_1" index="1" speed="20.00" length="1000.00" shape="1988.45,1982.05 1988.45,1017.95"/>
        <lane id="2/2to2/1_2" index="2" speed="20.00" length="1000.00" shape="1991.75,1982.05 1991.75,1017.95"/>
        <lane id="2/2to2/1_3" index="3" speed="20.00" length="1000.00" shape="1995.05,1982.05 1995.05,1017.95"/>
        <lane id="2/2to2/1_4" index="4" speed="20.00" length="1000.00" shape="1998.35,1982.05 1998.35,1017.95"/>
    </edge>
    <edge id="2/2to2/3" from="2/2" to="2/3" priority="-1">
        <lane id="2/2to2/3_0" index="0" speed="20.00" length="1000.00" shape="2014.85,2017.95 2014.85,2982.05"/>
        <lane id="2/2to2/3_1" index="1" speed="20.00" length="1000.00" shape="2011.55,2017.95 2011.55,2982.05"/>
        <lane id="2/2to2/3_2" index="2" speed="20.00" length="1000.00" shape="2008.25,2017.95 2008.25,2982.05"/>
        <lane id="2/2to2/3_3" index="3" speed="20.00" length="1000.00" shape="2004.95,2017.95 2004.95,2982.05"/>
        <lane id="2/2to2/3_4" index="4" speed="20.00" length="1000.00" shape="2001.65,2017.95 2001.65,2982.05"/>
    </edge>
    <edge id="2/2to3/2" from="2/2" to="3/2" priority="-1">
        <lane id="2/2to3/2_0" index="0" speed="20.00" length="1000.00" shape="2017.95,1985.15 2982.05,1985.15"/>
        <lane id="2/2to3/2_1" index="1" speed="20.00" length="1000.00" shape="2017.95,1988.45 2982.05,1988.45"/>
        <lane id="2/2to3/2_2" index="2" speed="20.00" length="1000.00" shape="2017.95,1991.75 2982.05,1991.75"/>
        <lane id="2/2to3/2_3" index="3" speed="20.00" length="1000.00" shape="2017.95,1995.05 2982.05,1995.05"/>
        <lane id="2/2to3/2_4" index="4" speed="20.00" length="1000.00" shape="2017.95,1998.35 2982.05,1998.35"/>
    </edge>
    <edge id="2/3to1/3" from="2/3" to="1/3" priority="-1">
        <lane id="2/3to1/3_0" index="0" speed="20.00" length="1000.00" shape="1982.05,3014.85 1017.95,3014.85"/>
        <lane id="2/3to1/3_1" index="1" speed="20.00" length="1000.00" shape="1982.05,3011.55 1017.95,3011.55"/>
        <lane id="2/3to1/3_2" index="2" speed="20.00" length="1000.00" shape="1982.05,3008.25 1017.95,3008.25"/>
        <lane id="2/3to1/3_3" index="3" speed="20.00" length="1000.00" shape="1982.05,3004.95 1017.95,3004.95"/>
        <lane id="2/3to1/3_4" index="4" speed="20.00" length="1000.00" shape="1982.05,3001.65 1017.95,3001.65"/>
    </edge>
    <edge id="2/3to2/2" from="2/3" to="2/2" priority="-1">
        <lane id="2/3to2/2_0" index="0" speed="20.00" length="1000.00" shape="1985.15,2982.05 1985.15,2017.95"/>
        <lane id="2/3to2/2_1" index="1" speed="20.00" length="1000.00" shape="1988.45,2982.05 1988.45,2017.95"/>
        <lane id="2/3to2/2_2" index="2" speed="20.00" length="1000.00" shape="1991.75,2982.05 1991.75,2017.95"/>
        <lane id="2/3to2/2_3" index="3" speed="20.00" length="1000.00" shape="1995.05,2982.05 1995.05,2017.95"/>
        <lane id="2/3to2/2_4" index="4" speed="20.00" length="1000.00" shape="1998.35,2982.05 1998.35,2017.95"/>
    </edge>
    <edge id="2/3to2/4" from="2/3" to="2/4" priority="-1">
        <lane id="2/3to2/4_0" index="0" speed="20.00" length="1000.00" shape="2014.85,3017.95 2014.85,3982.05"/>
        <lane id="2/3to2/4_1" index="1" speed="20.00" length="1000.00" shape="2011.55,3017.95 2011.55,3982.05"/>
        <lane id="2/3to2/4_2" index="2" speed="20.00" length="1000.00" shape="2008.25,3017.95 2008.25,3982.05"/>
        <lane id="2/3to2/4_3" index="3" speed="20.00" length="1000.00" shape="2004.95,3017.95 2004.95,3982.05"/>
        <lane id="2/3to2/4_4" index="4" speed="20.00" length="1000.00" shape="2001.65,3017.95 2001.65,3982.05"/>
    </edge>
    <edge id="2/3to3/3" from="2/3" to="3/3" priority="-1">
        <lane id="2/3to3/3_0" index="0" speed="20.00" length="1000.00" shape="2017.95,2985.15 2982.05,2985.15"/>
        <lane id="2/3to3/3_1" index="1" speed="20.00" length="1000.00" shape="2017.95,2988.45 2982.05,2988.45"/>
        <lane id="2/3to3/3_2" index="2" speed="20.00" length="1000.00" shape="2017.95,2991.75 2982.05,2991.75"/>
        <lane id="2/3to3/3_3" index="3" speed="20.00" length="1000.00" shape="2017.95,2995.05 2982.05,2995.05"/>
        <lane id="2/3to3/3_4" index="4" speed="20.00" length="1000.00" shape="2017.95,2998.35 2982.05,2998.35"/>
    </edge>
    <edge id="2/4to1/4" from="2/4" to="1/4" priority="-1">
        <lane id="2/4to1/4_0" index="0" speed="20.00" length="1000.00" shape="1982.05,4014.85 1017.95,4014.85"/>
        <lane id="2/4to1/4_1" index="1" speed="20.00" length="1000.00" shape="1982.05,4011.55 1017.95,4011.55"/>